<?xml version="1.0" encoding="UTF-8"?>

<!-- generated on 2024-05-30 10:33:50 by Eclipse SUMO netconvert Version 1.19.0
<configuration xmlns:xsi="http://www.w3.org/2001/XMLSchema-instance" xsi:noNamespaceSchemaLocation="http://sumo.dlr.de/xsd/netconvertConfiguration.xsd">

    <input>
        <osm-files value="sumodata\jd.osm"/>
    </input>

    <output>
        <output-file value="sumodata\jd.net.xml"/>
    </output>

    <projection>
        <proj.utm value="true"/>
    </projection>

    <tls_building>
        <tls.discard-loaded value="true"/>
    </tls_building>

    <junctions>
        <junctions.join value="true"/>
        <junctions.join-dist value="50"/>
    </junctions>

</configuration>
-->

<net version="1.16" junctionCornerDetail="5" limitTurnSpeed="5.50" xmlns:xsi="http://www.w3.org/2001/XMLSchema-instance" xsi:noNamespaceSchemaLocation="http://sumo.dlr.de/xsd/net_file.xsd">

    <location netOffset="-328130.67,-3460912.11" convBoundary="0.00,0.00,3799.60,2829.18" origBoundary="121.189458,31.264745,121.238289,31.310092" projParameter="+proj=utm +zone=51 +ellps=WGS84 +datum=WGS84 +units=m +no_defs"/>

    <type id="highway.footway" priority="1" numLanes="1" speed="2.78" allow="pedestrian" oneway="1" width="2.00"/>
    <type id="highway.pedestrian" priority="1" numLanes="1" speed="2.78" allow="pedestrian" oneway="1" width="2.00"/>
    <type id="highway.primary" priority="12" numLanes="2" speed="27.78" disallow="tram rail_urban rail rail_electric rail_fast ship" oneway="0"/>
    <type id="highway.primary_link" priority="7" numLanes="1" speed="22.22" disallow="tram rail_urban rail rail_electric rail_fast ship" oneway="0"/>
    <type id="highway.residential" priority="3" numLanes="1" speed="13.89" disallow="tram rail_urban rail rail_electric rail_fast ship" oneway="0"/>
    <type id="highway.service" priority="1" numLanes="1" speed="5.56" allow="pedestrian delivery bicycle" oneway="0"/>
    <type id="highway.steps" priority="1" numLanes="1" speed="1.39" allow="pedestrian" oneway="1" width="2.00"/>
    <type id="highway.tertiary" priority="10" numLanes="1" speed="22.22" disallow="tram rail_urban rail rail_electric rail_fast ship" oneway="0"/>
    <type id="highway.trunk" priority="13" numLanes="2" speed="27.78" disallow="pedestrian bicycle tram rail_urban rail rail_electric rail_fast ship" oneway="0"/>
    <type id="highway.unclassified" priority="4" numLanes="1" speed="13.89" disallow="tram rail_urban rail rail_electric rail_fast ship" oneway="0"/>

    <edge id=":11736549140_0" function="internal">
        <lane id=":11736549140_0_0" index="0" disallow="tram rail_urban rail rail_electric rail_fast ship" speed="13.89" length="5.11" shape="644.99,737.23 640.44,739.55"/>
    </edge>
    <edge id=":11736549140_1" function="internal">
        <lane id=":11736549140_1_0" index="0" disallow="tram rail_urban rail rail_electric rail_fast ship" speed="13.89" length="5.11" shape="638.98,736.71 643.53,734.38"/>
    </edge>
    <edge id=":11736549141_0" function="internal">
        <lane id=":11736549141_0_0" index="0" disallow="tram rail_urban rail rail_electric rail_fast ship" speed="13.89" length="5.39" shape="716.26,700.78 711.46,703.23"/>
    </edge>
    <edge id=":11736549141_1" function="internal">
        <lane id=":11736549141_1_0" index="0" disallow="tram rail_urban rail rail_electric rail_fast ship" speed="13.89" length="5.39" shape="710.00,700.38 714.80,697.93"/>
    </edge>
    <edge id=":11736562064_0" function="internal">
        <lane id=":11736562064_0_0" index="0" disallow="tram rail_urban rail rail_electric rail_fast ship" speed="7.28" length="10.00" shape="1200.87,1413.69 1200.02,1411.40 1198.48,1409.79 1196.26,1408.84 1193.36,1408.56"/>
    </edge>
    <edge id=":11736562064_1" function="internal">
        <lane id=":11736562064_1_0" index="0" disallow="tram rail_urban rail rail_electric rail_fast ship" speed="22.22" length="14.50" shape="1200.87,1413.69 1198.07,1399.46"/>
    </edge>
    <edge id=":11736562064_2" function="internal">
        <lane id=":11736562064_2_0" index="0" disallow="tram rail_urban rail rail_electric rail_fast ship" speed="3.65" length="1.44" shape="1200.87,1413.69 1201.43,1412.35"/>
    </edge>
    <edge id=":11736562064_9" function="internal">
        <lane id=":11736562064_9_0" index="0" disallow="tram rail_urban rail rail_electric rail_fast ship" speed="3.65" length="3.23" shape="1201.43,1412.35 1202.14,1411.81 1203.00,1412.04 1204.01,1413.07"/>
    </edge>
    <edge id=":11736562064_3" function="internal">
        <lane id=":11736562064_3_0" index="0" disallow="tram rail_urban rail rail_electric rail_fast ship" speed="22.22" length="14.50" shape="1201.21,1398.84 1204.01,1413.07"/>
    </edge>
    <edge id=":11736562064_4" function="internal">
        <lane id=":11736562064_4_0" index="0" disallow="tram rail_urban rail rail_electric rail_fast ship" speed="7.72" length="4.20" shape="1201.21,1398.84 1201.42,1403.03"/>
    </edge>
    <edge id=":11736562064_5" function="internal">
        <lane id=":11736562064_5_0" index="0" disallow="tram rail_urban rail rail_electric rail_fast ship" speed="3.65" length="1.44" shape="1201.21,1398.84 1200.65,1400.17"/>
    </edge>
    <edge id=":11736562064_10" function="internal">
        <lane id=":11736562064_10_0" index="0" disallow="tram rail_urban rail rail_electric rail_fast ship" speed="7.72" length="10.72" shape="1201.42,1403.03 1200.19,1406.05 1197.50,1407.89 1193.36,1408.56"/>
    </edge>
    <edge id=":11736562064_11" function="internal">
        <lane id=":11736562064_11_0" index="0" disallow="tram rail_urban rail rail_electric rail_fast ship" speed="3.65" length="3.23" shape="1200.65,1400.17 1199.95,1400.72 1199.08,1400.48 1198.07,1399.46"/>
    </edge>
    <edge id=":11736562064_6" function="internal">
        <lane id=":11736562064_6_0" index="0" disallow="tram rail_urban rail rail_electric rail_fast ship" speed="6.16" length="9.05" shape="1193.30,1405.36 1195.82,1404.95 1197.45,1403.83 1198.20,1402.00 1198.07,1399.46"/>
    </edge>
    <edge id=":11736562064_7" function="internal">
        <lane id=":11736562064_7_0" index="0" disallow="tram rail_urban rail rail_electric rail_fast ship" speed="8.66" length="14.52" shape="1193.30,1405.36 1197.41,1405.78 1200.56,1407.21 1202.76,1409.64 1204.01,1413.07"/>
    </edge>
    <edge id=":11736562064_8" function="internal">
        <lane id=":11736562064_8_0" index="0" disallow="tram rail_urban rail rail_electric rail_fast ship" speed="3.65" length="4.67" shape="1193.30,1405.36 1194.51,1406.14 1194.93,1406.93 1194.54,1407.74 1193.36,1408.56"/>
    </edge>
    <edge id=":11736562065_0" function="internal">
        <lane id=":11736562065_0_0" index="0" disallow="tram rail_urban rail rail_electric rail_fast ship" speed="13.89" length="14.44" shape="1092.56,1415.89 1092.74,1412.23 1093.20,1408.70 1093.64,1405.16 1093.76,1401.51"/>
    </edge>
    <edge id=":11736562065_1" function="internal">
        <lane id=":11736562065_1_0" index="0" disallow="tram rail_urban rail rail_electric rail_fast ship" speed="8.00" length="14.18" shape="1092.56,1415.89 1093.04,1412.03 1094.65,1409.25 1097.37,1407.56 1101.20,1406.94"/>
    </edge>
    <edge id=":11736562065_2" function="internal">
        <lane id=":11736562065_2_0" index="0" disallow="tram rail_urban rail rail_electric rail_fast ship" speed="3.65" length="1.44" shape="1092.56,1415.89 1093.34,1414.67"/>
    </edge>
    <edge id=":11736562065_6" function="internal">
        <lane id=":11736562065_6_0" index="0" disallow="tram rail_urban rail rail_electric rail_fast ship" speed="3.65" length="3.23" shape="1093.34,1414.67 1094.13,1414.26 1094.94,1414.65 1095.76,1415.83"/>
    </edge>
    <edge id=":11736562065_3" function="internal">
        <lane id=":11736562065_3_0" index="0" disallow="tram rail_urban rail rail_electric rail_fast ship" speed="6.51" length="9.03" shape="1101.26,1410.14 1098.82,1410.54 1097.09,1411.61 1096.07,1413.38 1095.76,1415.83"/>
    </edge>
    <edge id=":11736562065_4" function="internal">
        <lane id=":11736562065_4_0" index="0" disallow="tram rail_urban rail rail_electric rail_fast ship" speed="7.73" length="2.30" shape="1101.26,1410.14 1098.98,1409.79"/>
    </edge>
    <edge id=":11736562065_5" function="internal">
        <lane id=":11736562065_5_0" index="0" disallow="tram rail_urban rail rail_electric rail_fast ship" speed="3.65" length="1.30" shape="1101.26,1410.14 1100.16,1409.44"/>
    </edge>
    <edge id=":11736562065_7" function="internal">
        <lane id=":11736562065_7_0" index="0" disallow="tram rail_urban rail rail_electric rail_fast ship" speed="7.73" length="10.64" shape="1098.98,1409.79 1098.11,1409.65 1095.81,1408.05 1094.36,1405.33 1093.76,1401.51"/>
    </edge>
    <edge id=":11736562065_8" function="internal">
        <lane id=":11736562065_8_0" index="0" disallow="tram rail_urban rail rail_electric rail_fast ship" speed="3.65" length="3.37" shape="1100.16,1409.44 1100.05,1409.36 1099.63,1408.57 1100.02,1407.76 1101.20,1406.94"/>
    </edge>
    <edge id=":11736562068_0" function="internal">
        <lane id=":11736562068_0_0" index="0" disallow="tram rail_urban rail rail_electric rail_fast ship" speed="13.89" length="0.33" shape="988.83,1507.13 988.74,1507.17 988.68,1507.20 988.62,1507.23 988.54,1507.29"/>
    </edge>
    <edge id=":11736562068_1" function="internal">
        <lane id=":11736562068_1_0" index="0" disallow="tram rail_urban rail rail_electric rail_fast ship" speed="13.89" length="0.98" shape="986.68,1504.69 986.91,1504.52 987.08,1504.42 987.26,1504.32 987.52,1504.21"/>
    </edge>
    <edge id=":11736569671_0" function="internal">
        <lane id=":11736569671_0_0" index="0" disallow="tram rail_urban rail rail_electric rail_fast ship" speed="3.65" length="4.67" shape="952.09,1548.28 950.92,1547.43 950.55,1546.62 950.97,1545.84 952.20,1545.08"/>
    </edge>
    <edge id=":11736569673_0" function="internal">
        <lane id=":11736569673_0_0" index="0" disallow="tram rail_urban rail rail_electric rail_fast ship" speed="5.82" length="9.14" shape="1069.49,1145.22 1068.91,1142.62 1067.68,1141.17 1065.80,1140.90 1063.28,1141.79"/>
    </edge>
    <edge id=":11736569673_1" function="internal">
        <lane id=":11736569673_1_0" index="0" disallow="tram rail_urban rail rail_electric rail_fast ship" speed="8.87" length="12.32" shape="1069.49,1145.22 1069.34,1140.81 1069.71,1137.41 1070.59,1135.03 1071.99,1133.67"/>
    </edge>
    <edge id=":11736569673_2" function="internal">
        <lane id=":11736569673_2_0" index="0" disallow="tram rail_urban rail rail_electric rail_fast ship" speed="13.89" length="11.47" shape="1073.46,1136.51 1063.28,1141.79"/>
    </edge>
    <edge id=":11736569673_3" function="internal">
        <lane id=":11736569673_3_0" index="0" disallow="tram rail_urban rail rail_electric rail_fast ship" speed="3.65" length="1.44" shape="1073.46,1136.51 1072.03,1136.35"/>
    </edge>
    <edge id=":11736569673_6" function="internal">
        <lane id=":11736569673_6_0" index="0" disallow="tram rail_urban rail rail_electric rail_fast ship" speed="3.65" length="3.23" shape="1072.03,1136.35 1071.30,1135.82 1071.29,1134.93 1071.99,1133.67"/>
    </edge>
    <edge id=":11736569673_4" function="internal">
        <lane id=":11736569673_4_0" index="0" disallow="tram rail_urban rail rail_electric rail_fast ship" speed="13.89" length="11.47" shape="1061.81,1138.95 1071.99,1133.67"/>
    </edge>
    <edge id=":11736569673_5" function="internal">
        <lane id=":11736569673_5_0" index="0" disallow="tram rail_urban rail rail_electric rail_fast ship" speed="3.65" length="1.44" shape="1061.81,1138.95 1063.24,1139.11"/>
    </edge>
    <edge id=":11736569673_7" function="internal">
        <lane id=":11736569673_7_0" index="0" disallow="tram rail_urban rail rail_electric rail_fast ship" speed="3.65" length="3.23" shape="1063.24,1139.11 1063.96,1139.63 1063.98,1140.53 1063.28,1141.79"/>
    </edge>
    <edge id=":11736569674_0" function="internal">
        <lane id=":11736569674_0_0" index="0" disallow="tram rail_urban rail rail_electric rail_fast ship" speed="13.89" length="5.03" shape="1171.08,1408.95 1166.05,1409.03"/>
    </edge>
    <edge id=":11736569674_1" function="internal">
        <lane id=":11736569674_1_0" index="0" disallow="tram rail_urban rail rail_electric rail_fast ship" speed="13.89" length="5.03" shape="1166.00,1405.83 1171.03,1405.75"/>
    </edge>
    <edge id=":11736569683_0" function="internal">
        <lane id=":11736569683_0_0" index="0" disallow="tram rail_urban rail rail_electric rail_fast ship" speed="13.89" length="5.00" shape="1076.60,1284.83 1076.37,1279.83"/>
    </edge>
    <edge id=":11736569685_0" function="internal">
        <lane id=":11736569685_0_0" index="0" disallow="tram rail_urban rail rail_electric rail_fast ship" speed="22.22" length="5.02" shape="1173.78,1276.34 1172.81,1271.42"/>
    </edge>
    <edge id=":11736569685_1" function="internal">
        <lane id=":11736569685_1_0" index="0" disallow="tram rail_urban rail rail_electric rail_fast ship" speed="22.22" length="5.02" shape="1175.95,1270.80 1176.92,1275.72"/>
    </edge>
    <edge id=":11736569686_0" function="internal">
        <lane id=":11736569686_0_0" index="0" disallow="tram rail_urban rail rail_electric rail_fast ship" speed="13.89" length="5.04" shape="1100.25,1122.60 1095.78,1124.92"/>
    </edge>
    <edge id=":11736569686_1" function="internal">
        <lane id=":11736569686_1_0" index="0" disallow="tram rail_urban rail rail_electric rail_fast ship" speed="13.89" length="5.04" shape="1094.31,1122.08 1098.78,1119.76"/>
    </edge>
    <edge id=":11802550508_0" function="internal">
        <lane id=":11802550508_0_0" index="0" allow="delivery" speed="7.43" length="8.55" shape="796.86,1887.45 795.14,1886.08 793.26,1885.37 791.21,1885.32 789.00,1885.92"/>
    </edge>
    <edge id=":11802550508_1" function="internal">
        <lane id=":11802550508_1_0" index="0" allow="pedestrian delivery bicycle" speed="5.56" length="12.17" shape="796.86,1887.45 794.55,1885.08 792.62,1883.08 790.77,1881.01 788.69,1878.44"/>
    </edge>
    <edge id=":11802550508_2" function="internal">
        <lane id=":11802550508_2_0" index="0" allow="pedestrian delivery bicycle" speed="3.65" length="4.67" shape="796.86,1887.45 796.60,1886.03 796.90,1885.18 797.75,1884.91 799.16,1885.22"/>
    </edge>
    <edge id=":11802550508_3" function="internal">
        <lane id=":11802550508_3_0" index="0" allow="delivery" speed="4.79" length="5.39" shape="799.86,1880.92 798.60,1881.82 798.06,1882.84 798.25,1883.97 799.16,1885.22"/>
    </edge>
    <edge id=":11802550508_4" function="internal">
        <lane id=":11802550508_4_0" index="0" disallow="pedestrian bicycle tram rail_urban rail rail_electric rail_fast ship" speed="22.22" length="11.81" shape="799.86,1880.92 796.70,1882.55 794.52,1883.61 792.29,1884.58 789.00,1885.92"/>
        <lane id=":11802550508_4_1" index="1" disallow="pedestrian bicycle tram rail_urban rail rail_electric rail_fast ship" speed="22.22" length="11.81" shape="798.38,1878.08 795.30,1879.67 793.17,1880.71 791.00,1881.65 787.79,1882.96"/>
    </edge>
    <edge id=":11802550508_6" function="internal">
        <lane id=":11802550508_6_0" index="0" allow="delivery" speed="7.44" length="10.48" shape="798.38,1878.08 795.11,1879.49 792.40,1880.02 790.27,1879.67 788.69,1878.44"/>
    </edge>
    <edge id=":11802550508_7" function="internal">
        <lane id=":11802550508_7_0" index="0" allow="pedestrian delivery bicycle" speed="5.56" length="11.63" shape="791.34,1876.63 793.36,1879.14 795.09,1881.06 796.90,1882.92 799.16,1885.22"/>
    </edge>
    <edge id=":11802550508_8" function="internal">
        <lane id=":11802550508_8_0" index="0" allow="delivery" speed="5.90" length="8.74" shape="791.34,1876.63 792.20,1878.42 791.89,1880.07 790.42,1881.59 787.79,1882.96"/>
    </edge>
    <edge id=":11802550508_9" function="internal">
        <lane id=":11802550508_9_0" index="0" allow="pedestrian delivery bicycle" speed="3.65" length="4.68" shape="791.34,1876.63 791.36,1878.07 790.92,1878.86 790.03,1878.98 788.69,1878.44"/>
    </edge>
    <edge id=":11802550522_0" function="internal">
        <lane id=":11802550522_0_0" index="0" allow="pedestrian delivery bicycle" speed="5.04" length="5.00" shape="1245.62,1539.17 1244.78,1540.25 1244.48,1541.34 1244.74,1542.44 1245.54,1543.55"/>
    </edge>
    <edge id=":11802550522_1" function="internal">
        <lane id=":11802550522_1_0" index="0" allow="pedestrian delivery bicycle" speed="5.56" length="6.20" shape="1241.23,1539.09 1245.54,1543.55"/>
    </edge>
    <edge id=":11802550524_0" function="internal">
        <lane id=":11802550524_0_0" index="0" allow="delivery" speed="7.66" length="6.55" shape="1333.18,1435.40 1332.46,1436.37 1332.01,1437.73 1331.81,1439.48 1331.89,1441.63"/>
    </edge>
    <edge id=":11802550524_1" function="internal">
        <lane id=":11802550524_1_0" index="0" disallow="pedestrian bicycle tram rail_urban rail rail_electric rail_fast ship" speed="22.22" length="7.01" shape="1333.18,1435.40 1327.98,1440.09"/>
        <lane id=":11802550524_1_1" index="1" disallow="pedestrian bicycle tram rail_urban rail rail_electric rail_fast ship" speed="22.22" length="7.01" shape="1331.04,1433.02 1325.84,1437.71"/>
        <lane id=":11802550524_1_2" index="2" disallow="pedestrian bicycle tram rail_urban rail rail_electric rail_fast ship" speed="22.22" length="7.01" shape="1328.90,1430.64 1323.70,1435.33"/>
        <lane id=":11802550524_1_3" index="3" disallow="pedestrian bicycle tram rail_urban rail rail_electric rail_fast ship" speed="22.22" length="7.01" shape="1326.76,1428.26 1321.56,1432.95"/>
    </edge>
    <edge id=":11802550533_0" function="internal">
        <lane id=":11802550533_0_0" index="0" disallow="pedestrian bicycle tram rail_urban rail rail_electric rail_fast ship" speed="22.22" length="24.08" shape="2160.24,743.26 2167.10,738.89 2172.81,735.66 2177.37,733.11 2180.80,730.76"/>
    </edge>
    <edge id=":11802550533_1" function="internal">
        <lane id=":11802550533_1_0" index="0" disallow="pedestrian bicycle tram rail_urban rail rail_electric rail_fast ship" speed="22.22" length="24.49" shape="2160.24,743.26 2166.38,739.54 2171.02,737.80 2175.97,736.73 2183.05,735.00"/>
        <lane id=":11802550533_1_1" index="1" disallow="pedestrian bicycle tram rail_urban rail rail_electric rail_fast ship" speed="22.22" length="23.46" shape="2162.05,745.90 2167.94,742.35 2172.39,740.72 2177.14,739.72 2183.93,738.08"/>
        <lane id=":11802550533_1_2" index="2" disallow="pedestrian bicycle tram rail_urban rail rail_electric rail_fast ship" speed="22.22" length="22.43" shape="2163.85,748.54 2169.49,745.16 2173.76,743.63 2178.32,742.71 2184.81,741.15"/>
    </edge>
    <edge id=":1187044390_0" function="internal">
        <lane id=":1187044390_0_0" index="0" disallow="pedestrian bicycle tram rail_urban rail rail_electric rail_fast ship" speed="22.22" length="8.21" shape="1030.78,1674.55 1032.39,1672.76 1033.22,1671.28 1034.05,1669.80 1035.67,1668.02"/>
        <lane id=":1187044390_0_1" index="1" disallow="pedestrian bicycle tram rail_urban rail rail_electric rail_fast ship" speed="22.22" length="8.21" shape="1032.91,1676.93 1034.53,1675.15 1035.36,1673.67 1036.18,1672.19 1037.80,1670.40"/>
        <lane id=":1187044390_0_2" index="2" disallow="pedestrian bicycle tram rail_urban rail rail_electric rail_fast ship" speed="22.22" length="8.21" shape="1035.05,1679.31 1036.67,1677.53 1037.49,1676.05 1038.32,1674.57 1039.94,1672.79"/>
        <lane id=":1187044390_0_3" index="3" disallow="pedestrian bicycle tram rail_urban rail rail_electric rail_fast ship" speed="22.22" length="8.21" shape="1035.05,1679.31 1037.00,1677.90 1038.56,1677.24 1040.12,1676.58 1042.07,1675.17"/>
    </edge>
    <edge id=":1187044863_0" function="internal">
        <lane id=":1187044863_0_0" index="0" disallow="pedestrian bicycle tram rail_urban rail rail_electric rail_fast ship" speed="22.22" length="0.28" shape="1049.79,1689.16 1049.53,1689.38"/>
        <lane id=":1187044863_0_1" index="1" disallow="pedestrian bicycle tram rail_urban rail rail_electric rail_fast ship" speed="22.22" length="0.28" shape="1047.63,1686.79 1047.42,1686.98"/>
        <lane id=":1187044863_0_2" index="2" disallow="pedestrian bicycle tram rail_urban rail rail_electric rail_fast ship" speed="22.22" length="0.28" shape="1045.47,1684.43 1045.30,1684.59"/>
    </edge>
    <edge id=":1187044978_0" function="internal">
        <lane id=":1187044978_0_0" index="0" disallow="pedestrian bicycle tram rail_urban rail rail_electric rail_fast ship" speed="22.22" length="0.30" shape="1025.46,1710.65 1025.23,1710.86"/>
        <lane id=":1187044978_0_1" index="1" disallow="pedestrian bicycle tram rail_urban rail rail_electric rail_fast ship" speed="22.22" length="0.30" shape="1023.34,1708.25 1023.11,1708.45"/>
        <lane id=":1187044978_0_2" index="2" disallow="pedestrian bicycle tram rail_urban rail rail_electric rail_fast ship" speed="22.22" length="0.30" shape="1021.22,1705.86 1021.00,1706.05"/>
    </edge>
    <edge id=":1187045027_0" function="internal">
        <lane id=":1187045027_0_0" index="0" disallow="pedestrian bicycle tram rail_urban rail rail_electric rail_fast ship" speed="22.22" length="0.30" shape="1958.03,897.63 1957.80,897.77"/>
        <lane id=":1187045027_0_1" index="1" disallow="pedestrian bicycle tram rail_urban rail rail_electric rail_fast ship" speed="22.22" length="0.30" shape="1956.35,894.90 1956.10,895.06"/>
        <lane id=":1187045027_0_2" index="2" disallow="pedestrian bicycle tram rail_urban rail rail_electric rail_fast ship" speed="22.22" length="0.30" shape="1954.67,892.18 1954.39,892.35"/>
    </edge>
    <edge id=":1187045164_0" function="internal">
        <lane id=":1187045164_0_0" index="0" disallow="pedestrian bicycle tram rail_urban rail rail_electric rail_fast ship" speed="22.22" length="29.02" shape="1146.92,1600.28 1140.67,1606.88 1137.01,1612.73 1134.42,1618.40 1131.40,1624.49"/>
        <lane id=":1187045164_0_1" index="1" disallow="pedestrian bicycle tram rail_urban rail rail_electric rail_fast ship" speed="22.22" length="29.26" shape="1146.92,1600.28 1140.19,1606.68 1135.58,1611.97 1132.07,1617.07 1128.62,1622.89"/>
    </edge>
    <edge id=":1187045164_2" function="internal">
        <lane id=":1187045164_2_0" index="0" disallow="pedestrian bicycle tram rail_urban rail rail_electric rail_fast ship" speed="22.22" length="29.47" shape="1146.92,1600.28 1125.21,1620.15"/>
        <lane id=":1187045164_2_1" index="1" disallow="pedestrian bicycle tram rail_urban rail rail_electric rail_fast ship" speed="22.22" length="29.47" shape="1144.79,1597.89 1123.05,1617.79"/>
        <lane id=":1187045164_2_2" index="2" disallow="pedestrian bicycle tram rail_urban rail rail_electric rail_fast ship" speed="22.22" length="29.47" shape="1142.65,1595.50 1120.89,1615.42"/>
    </edge>
    <edge id=":1187045165_0" function="internal">
        <lane id=":1187045165_0_0" index="0" disallow="pedestrian bicycle tram rail_urban rail rail_electric rail_fast ship" speed="22.22" length="0.29" shape="1009.92,1693.27 1010.17,1693.05"/>
        <lane id=":1187045165_0_1" index="1" disallow="pedestrian bicycle tram rail_urban rail rail_electric rail_fast ship" speed="22.22" length="0.29" shape="1012.09,1695.62 1012.31,1695.43"/>
        <lane id=":1187045165_0_2" index="2" disallow="pedestrian bicycle tram rail_urban rail rail_electric rail_fast ship" speed="22.22" length="0.29" shape="1014.26,1697.98 1014.45,1697.81"/>
    </edge>
    <edge id=":1187045195_0" function="internal">
        <lane id=":1187045195_0_0" index="0" disallow="pedestrian bicycle tram rail_urban rail rail_electric rail_fast ship" speed="22.22" length="0.36" shape="1927.64,916.74 1927.43,916.87"/>
        <lane id=":1187045195_0_1" index="1" disallow="pedestrian bicycle tram rail_urban rail rail_electric rail_fast ship" speed="22.22" length="0.36" shape="1925.93,914.03 1925.63,914.23"/>
        <lane id=":1187045195_0_2" index="2" disallow="pedestrian bicycle tram rail_urban rail rail_electric rail_fast ship" speed="22.22" length="0.36" shape="1924.23,911.32 1923.84,911.58"/>
    </edge>
    <edge id=":1187061183_0" function="internal">
        <lane id=":1187061183_0_0" index="0" allow="delivery" speed="5.69" length="5.37" shape="788.57,1878.28 787.48,1877.14 786.34,1876.47 785.16,1876.29 783.92,1876.59"/>
    </edge>
    <edge id=":1187061183_1" function="internal">
        <lane id=":1187061183_1_0" index="0" allow="pedestrian delivery bicycle" speed="3.65" length="4.68" shape="788.57,1878.28 788.56,1876.83 788.99,1876.05 789.88,1875.93 791.22,1876.47"/>
    </edge>
    <edge id=":1187061183_2" function="internal">
        <lane id=":1187061183_2_0" index="0" allow="delivery" speed="4.79" length="4.96" shape="792.33,1872.44 791.14,1873.30 790.56,1874.25 790.59,1875.31 791.22,1876.47"/>
    </edge>
    <edge id=":1187061183_3" function="internal">
        <lane id=":1187061183_3_0" index="0" disallow="pedestrian bicycle tram rail_urban rail rail_electric rail_fast ship" speed="22.22" length="9.10" shape="792.33,1872.44 789.88,1873.77 788.20,1874.66 786.47,1875.48 783.92,1876.59"/>
        <lane id=":1187061183_3_1" index="1" disallow="pedestrian bicycle tram rail_urban rail rail_electric rail_fast ship" speed="22.22" length="9.10" shape="790.82,1869.63 788.44,1870.91 786.81,1871.77 785.14,1872.57 782.67,1873.65"/>
        <lane id=":1187061183_3_2" index="2" disallow="pedestrian bicycle tram rail_urban rail rail_electric rail_fast ship" speed="22.22" length="9.10" shape="789.30,1866.81 787.00,1868.05 785.42,1868.89 783.80,1869.66 781.41,1870.70"/>
    </edge>
    <edge id=":1246570803_0" function="internal">
        <lane id=":1246570803_0_0" index="0" disallow="tram rail_urban rail rail_electric rail_fast ship" speed="27.78" length="0.24" shape="2262.95,1711.64 2262.87,1711.48"/>
        <lane id=":1246570803_0_1" index="1" disallow="tram rail_urban rail rail_electric rail_fast ship" speed="27.78" length="0.24" shape="2265.89,1710.39 2265.77,1710.11"/>
    </edge>
    <edge id=":1246570826_0" function="internal">
        <lane id=":1246570826_0_0" index="0" disallow="tram rail_urban rail rail_electric rail_fast ship" speed="27.78" length="0.29" shape="2267.00,1688.90 2267.14,1689.18"/>
        <lane id=":1246570826_0_1" index="1" disallow="tram rail_urban rail rail_electric rail_fast ship" speed="27.78" length="0.29" shape="2264.13,1690.31 2264.25,1690.56"/>
    </edge>
    <edge id=":1246570831_0" function="internal">
        <lane id=":1246570831_0_0" index="0" disallow="tram rail_urban rail rail_electric rail_fast ship" speed="27.78" length="0.26" shape="1617.52,749.24 1617.64,749.41"/>
        <lane id=":1246570831_0_1" index="1" disallow="tram rail_urban rail rail_electric rail_fast ship" speed="27.78" length="0.26" shape="1614.82,750.96 1614.99,751.21"/>
    </edge>
    <edge id=":1246570837_0" function="internal">
        <lane id=":1246570837_0_0" index="0" disallow="tram rail_urban rail rail_electric rail_fast ship" speed="27.78" length="0.30" shape="2321.78,2268.04 2321.76,2268.34"/>
        <lane id=":1246570837_0_1" index="1" disallow="tram rail_urban rail rail_electric rail_fast ship" speed="27.78" length="0.30" shape="2318.59,2267.85 2318.57,2268.14"/>
    </edge>
    <edge id=":1246570865_0" function="internal">
        <lane id=":1246570865_0_0" index="0" disallow="tram rail_urban rail rail_electric rail_fast ship" speed="27.78" length="0.10" shape="2309.44,2246.62 2309.44,2246.62"/>
        <lane id=":1246570865_0_1" index="1" disallow="tram rail_urban rail rail_electric rail_fast ship" speed="27.78" length="0.10" shape="2312.64,2246.82 2312.64,2246.82"/>
    </edge>
    <edge id=":1246570891_0" function="internal">
        <lane id=":1246570891_0_0" index="0" disallow="tram rail_urban rail rail_electric rail_fast ship" speed="27.78" length="0.10" shape="1858.19,1098.44 1858.19,1098.44"/>
        <lane id=":1246570891_0_1" index="1" disallow="tram rail_urban rail rail_electric rail_fast ship" speed="27.78" length="0.10" shape="1855.57,1100.29 1855.57,1100.29"/>
    </edge>
    <edge id=":1246570903_0" function="internal">
        <lane id=":1246570903_0_0" index="0" disallow="tram rail_urban rail rail_electric rail_fast ship" speed="27.78" length="0.10" shape="2277.06,1709.98 2277.09,1710.05"/>
        <lane id=":1246570903_0_1" index="1" disallow="tram rail_urban rail rail_electric rail_fast ship" speed="27.78" length="0.10" shape="2274.17,1711.36 2274.14,1711.28"/>
    </edge>
    <edge id=":1246570915_0" function="internal">
        <lane id=":1246570915_0_0" index="0" disallow="tram rail_urban rail rail_electric rail_fast ship" speed="27.78" length="0.10" shape="2323.03,2247.61 2323.03,2247.61"/>
        <lane id=":1246570915_0_1" index="1" disallow="tram rail_urban rail rail_electric rail_fast ship" speed="27.78" length="0.10" shape="2319.84,2247.42 2319.84,2247.42"/>
    </edge>
    <edge id=":1246570930_0" function="internal">
        <lane id=":1246570930_0_0" index="0" disallow="tram rail_urban rail rail_electric rail_fast ship" speed="27.78" length="0.23" shape="2252.47,1689.52 2252.42,1689.42"/>
        <lane id=":1246570930_0_1" index="1" disallow="tram rail_urban rail rail_electric rail_fast ship" speed="27.78" length="0.23" shape="2255.37,1688.15 2255.21,1687.85"/>
    </edge>
    <edge id=":1246570944_0" function="internal">
        <lane id=":1246570944_0_0" index="0" disallow="tram rail_urban rail rail_electric rail_fast ship" speed="27.78" length="0.30" shape="1601.08,748.88 1600.90,748.62"/>
        <lane id=":1246570944_0_1" index="1" disallow="tram rail_urban rail rail_electric rail_fast ship" speed="27.78" length="0.30" shape="1603.73,747.09 1603.57,746.85"/>
    </edge>
    <edge id=":1246570957_0" function="internal">