<?xml version="1.0" encoding="UTF-8"?>

<!-- generated on 2024-05-30 10:33:51 by Eclipse SUMO polyconvert Version 1.19.0
<configuration xmlns:xsi="http://www.w3.org/2001/XMLSchema-instance" xsi:noNamespaceSchemaLocation="http://sumo.dlr.de/xsd/polyconvertConfiguration.xsd">

    <input>
        <net-file value="sumodata\jd.net.xml"/>
        <osm-files value="sumodata\jd.osm"/>
    </input>

    <output>
        <output-file value="sumodata\jd.poly.xml"/>
    </output>

</configuration>
-->

<additional xmlns:xsi="http://www.w3.org/2001/XMLSchema-instance" xsi:noNamespaceSchemaLocation="http://sumo.dlr.de/xsd/additional_file.xsd">
    <location netOffset="-328130.67,-3460912.11" convBoundary="-1311.13,-2773.25,20728.61,4412.69" origBoundary="121.180611,31.247690,121.412789,31.310092" projParameter="+proj=utm +zone=51 +ellps=WGS84 +datum=WGS84 +units=m +no_defs"/>

    <poly id="1047794576" type="water" color="181,209,209" fill="0" layer="-4.00" shape="3543.323789,1898.491976 3548.805999,1759.345638 3570.336950,1637.006964 3579.029214,1573.320585 3575.197104,1557.625537 3558.321255,1524.852920 3518.464595,1491.938716 3509.015376,1476.333752 3501.132163,1430.709827 3504.288222,1340.688746 3496.927208,1232.019472 3508.365241,1180.996230 3516.747274,1130.022004 3512.214864,1102.141075 3503.800216,1087.528552 3480.688319,1079.261352 3420.795987,1104.117205 3379.493742,1108.838142 3344.290458,1111.443291 3291.035807,1103.649201 3203.351633,1083.202139 3140.989632,1081.154680 2830.457472,1076.989836"/>
    <poly id="1047794579" type="water" color="181,209,209" fill="0" layer="-4.00" shape="1959.302282,2250.929363 2032.009268,2255.363452 2112.771784,2248.013849 2362.984931,2257.387276 2859.407828,2274.863598"/>
    <poly id="1052597242" type="water" color="181,209,209" fill="0" layer="-4.00" shape="3626.862681,2317.876403 3508.014820,2322.997635 3441.014148,2321.577654 3397.509356,2311.575597 3358.008582,2305.434703 3333.158494,2297.284575 3313.325019,2289.042857 3288.785144,2277.683321 3270.779469,2271.197546 3187.641522,2246.863749 3137.106287,2223.082032 3105.740299,2210.047410 3079.704943,2195.130849 3065.918031,2183.953735 3054.410480,2181.289091 3019.701570,2183.621479 3005.039469,2184.932906 2985.609445,2179.900910 2881.927783,2147.705698 2856.865553,2142.398688"/>
    <poly id="1052597243" type="residential" color="235,235,227" fill="1" layer="-3.00" shape="2946.246933,1918.483375 2942.551621,1742.681710 3168.089579,1736.493748 3187.979827,1746.419768 3189.173419,1927.384281 2946.246933,1918.483375"/>
    <poly id="1052597244" type="residential" color="235,235,227" fill="1" layer="-3.00" shape="3218.223290,1920.087141 3224.072456,1750.108935 3234.973701,1734.565411 3372.028010,1721.265475 3376.485973,1731.439532 3349.459894,1918.833433 3218.223290,1920.087141"/>
    <poly id="1052597245" type="residential" color="235,235,227" fill="1" layer="-3.00" shape="2948.852540,1707.574434 2951.413164,1493.251083 3187.261680,1487.751784 3195.192557,1501.285185 3197.269972,1683.943030 3175.330353,1706.494359 2948.852540,1707.574434"/>
    <poly id="1052597246" type="residential" color="235,235,227" fill="1" layer="-3.00" shape="3234.480122,1703.836507 3225.724230,1692.877739 3231.244888,1502.413671 3248.153760,1486.773693 3399.878673,1478.361522 3375.924313,1696.442737 3234.480122,1703.836507"/>
    <poly id="1052597247" type="residential" color="235,235,227" fill="1" layer="-3.00" shape="2954.873396,1441.967299 2944.334666,1426.768411 2940.547544,1297.916348 2957.579943,1289.958130 3174.553827,1284.762459 3205.644065,1297.070028 3207.645703,1421.681670 3181.233507,1433.205379 2954.873396,1441.967299"/>
    <poly id="1052597248" type="residential" color="235,235,227" fill="1" layer="-3.00" shape="3251.515298,1428.661276 3240.179188,1417.743924 3240.853954,1299.065920 3250.151705,1290.378605 3422.590232,1290.172320 3406.723174,1423.608521 3251.515298,1428.661276"/>
    <poly id="1052597249" type="residential" color="235,235,227" fill="1" layer="-3.00" shape="2939.059007,1258.665415 2937.054119,1134.042627 2951.492957,1125.272339 3198.676689,1130.690864 3209.169982,1142.475525 3206.631094,1251.802749 3185.382783,1264.097277 2939.059007,1258.665415"/>
    <poly id="1052597250" type="residential" color="235,235,227" fill="1" layer="-3.00" shape="3247.971964,1261.384400 3235.724002,1247.066486 3239.353082,1152.236383 3246.107809,1145.297512 3347.582065,1159.890718 3419.432963,1146.784678 3457.076945,1140.204284 3459.999276,1161.502393 3442.539594,1249.723743 3436.696433,1260.063060 3247.971964,1261.384400"/>
    <poly id="1058065494" type="building" color="255,230,230" fill="1" layer="-1.00" shape="2380.141434,1701.648862 2478.753100,1678.324167 2496.768368,1753.778175 2398.167092,1777.113664 2380.141434,1701.648862"/>
    <poly id="1085982602" type="building" color="255,230,230" fill="1" layer="-1.00" shape="978.599830,1254.095682 978.450687,1243.175978 1014.239885,1242.660121 1014.388990,1253.579824 978.599830,1254.095682"/>
    <poly id="1085982603" type="building" color="255,230,230" fill="1" layer="-1.00" shape="1007.477257,1334.471697 1007.324433,1319.227554 1064.034944,1318.670825 1064.187686,1333.914965 1007.477257,1334.471697"/>
    <poly id="1085982604" type="building" color="255,230,230" fill="1" layer="-1.00" shape="1028.860505,1194.819503 1028.701898,1183.899957 1064.491290,1183.384279 1064.649860,1194.303825 1028.860505,1194.819503"/>
    <poly id="1085982605" type="building" color="255,230,230" fill="1" layer="-1.00" shape="1021.691934,1451.323428 1021.546514,1436.533790 1082.207563,1435.923929 1082.352897,1450.713564 1021.691934,1451.323428"/>
    <poly id="1085982606" type="building" color="255,230,230" fill="1" layer="-1.00" shape="1018.515452,1391.885535 1018.360513,1377.096053 1079.021906,1376.486189 1079.176760,1391.275668 1018.515452,1391.885535"/>
    <poly id="1085982607" type="building" color="255,230,230" fill="1" layer="-1.00" shape="1029.984270,1235.795236 1029.825661,1224.875689 1065.614914,1224.360009 1065.773485,1235.279555 1029.984270,1235.795236"/>
    <poly id="1085982608" type="building" color="255,230,230" fill="1" layer="-1.00" shape="964.927526,1212.148793 964.768851,1201.229244 1000.558374,1200.724431 1000.716832,1211.632893 964.927526,1212.148793"/>
    <poly id="1085982609" type="building" color="255,230,230" fill="1" layer="-1.00" shape="1031.618414,1280.044850 1031.469325,1269.125147 1067.258426,1268.609466 1067.407478,1279.529168 1031.618414,1280.044850"/>
    <poly id="1085983329" type="leisure" color="207,245,201" fill="1" layer="-2.00" shape="867.606655,1144.696418 885.611409,1139.202747 875.626244,1106.743081 857.621437,1112.236766 867.606655,1144.696418"/>
    <poly id="1085983329#1" type="sport" color="79,230,125" fill="1" layer="-2.00" shape="867.606655,1144.696418 885.611409,1139.202747 875.626244,1106.743081 857.621437,1112.236766 867.606655,1144.696418"/>
    <poly id="1085983330" type="leisure" color="207,245,201" fill="1" layer="-2.00" shape="832.113748,1154.655302 847.510558,1149.836084 837.630466,1118.572290 822.224092,1123.391674 832.113748,1154.655302"/>
    <poly id="1085983330#1" type="sport" color="79,230,125" fill="1" layer="-2.00" shape="832.113748,1154.655302 847.510558,1149.836084 837.630466,1118.572290 822.224092,1123.391674 832.113748,1154.655302"/>
    <poly id="1085983331" type="leisure" color="207,245,201" fill="1" layer="-2.00" shape="849.302851,1150.538733 867.307768,1145.056116 857.322369,1112.585378 839.317580,1118.079096 849.302851,1150.538733"/>
    <poly id="1085983331#1" type="sport" color="79,230,125" fill="1" layer="-2.00" shape="849.302851,1150.538733 867.307768,1145.056116 857.322369,1112.585378 839.317580,1118.079096 849.302851,1150.538733"/>
    <poly id="1085983332" type="building" color="255,230,230" fill="1" layer="-1.00" shape="1076.693591,1513.776959 1096.324834,1513.468731 1112.036921,1528.648317 1145.157900,1494.700205 1122.063830,1472.388766 1161.934656,1471.108416 1160.700879,1433.294685 1148.484175,1421.074249 1111.011022,1421.650337 1111.798818,1472.433728 1076.058742,1472.992856 1076.693591,1513.776959"/>
    <poly id="1085984768" type="building" color="255,230,230" fill="1" layer="-1.00" shape="759.480840,1479.056494 759.894933,1471.742440 805.770677,1474.299288 805.356733,1481.624425 759.480840,1479.056494"/>
    <poly id="1085984769" type="building" color="255,230,230" fill="1" layer="-1.00" shape="947.753725,1586.930056 948.193884,1578.284975 977.853136,1579.764845 977.413133,1588.421008 947.753725,1586.930056"/>
    <poly id="1085984770" type="building" color="255,230,230" fill="1" layer="-1.00" shape="765.599717,1513.264523 766.296099,1501.066940 804.718437,1503.235170 804.012670,1515.443989 765.599717,1513.264523"/>
    <poly id="1085984771" type="building" color="255,230,230" fill="1" layer="-1.00" shape="909.628474,1522.860659 910.371226,1511.161321 952.028822,1513.765300 951.286205,1525.475719 909.628474,1522.860659"/>
    <poly id="1085984772" type="building" color="255,230,230" fill="1" layer="-1.00" shape="761.453181,1585.473728 762.282110,1573.229628 821.874408,1577.204085 821.045591,1589.459263 761.453181,1585.473728"/>
    <poly id="1085984773" type="building" color="255,230,230" fill="1" layer="-1.00" shape="827.880033,1621.426876 828.699513,1609.182940 888.291561,1613.157764 887.462492,1625.401848 827.880033,1621.426876"/>
    <poly id="1085984774" type="building" color="255,230,230" fill="1" layer="-1.00" shape="831.496665,1517.247199 832.097428,1505.605605 900.557664,1509.103421 899.957007,1520.756093 831.496665,1517.247199"/>
    <poly id="1085984775" type="building" color="255,230,230" fill="1" layer="-1.00" shape="812.478718,1483.304726 812.892666,1475.979590 858.759025,1478.547909 858.345045,1485.873041 812.478718,1483.304726"/>
    <poly id="1085984776" type="building" color="255,230,230" fill="1" layer="-1.00" shape="866.635766,1486.225904 867.049751,1478.900772 912.925409,1481.458085 912.511392,1488.783214 866.635766,1486.225904"/>
    <poly id="1085984777" type="building" color="255,230,230" fill="1" layer="-1.00" shape="920.345713,1489.764504 920.759735,1482.439376 966.626011,1485.008163 966.211957,1492.333288 920.345713,1489.764504"/>
    <poly id="1085984778" type="building" color="255,230,230" fill="1" layer="-1.00" shape="902.243154,1626.647005 903.072240,1614.402923 962.664204,1618.378166 961.835050,1630.622241 902.243154,1626.647005"/>
    <poly id="1085984779" type="building" color="255,230,230" fill="1" layer="-1.00" shape="562.132858,1470.099301 562.665471,1457.216877 582.324649,1458.027176 581.824966,1470.010894 586.703961,1470.208513 586.045706,1485.898372 555.351776,1484.647152 555.967333,1469.845064 562.132858,1470.099301"/>
    <poly id="1263188125" type="tourism" color="207,245,201" fill="1" layer="-2.00" shape="558.252943,772.841186 515.466488,638.780913 486.859229,544.940170 481.256984,515.037252 490.413033,496.580776 678.049670,536.732612 784.084977,558.767450 792.897796,565.986638 820.506358,616.222318 795.735274,628.512595 777.187919,664.475206 703.451937,702.834094 615.464012,747.890498 597.292246,752.522418 558.252943,772.841186"/>
    <poly id="135382292" type="landuse" color="194,194,130" fill="1" layer="-3.00" shape="1358.972194,2042.088493 1421.165632,2000.017977 1477.306765,1955.817318 1482.130357,1949.684740 1481.745783,1943.004654 1404.781996,1833.159005 1403.492982,1837.637489 1406.610609,1844.905238 1400.304537,1860.609069 1390.134317,1873.503748 1379.345732,1882.915622 1359.838290,1893.733197 1348.929988,1895.185545 1338.236568,1893.452031 1329.668629,1904.735100 1324.149533,1917.875861 1324.411021,1950.970628 1330.880424,1962.330986 1336.889831,1978.788416 1337.344713,2006.790446 1347.477886,2024.456064 1358.972194,2042.088493"/>
    <poly id="135382294" type="landuse" color="194,194,130" fill="1" layer="-3.00" shape="1428.281726,1763.818460 1431.920640,1771.521291 1447.412548,1774.951163 1448.390124,1770.644069 1463.519329,1772.849036 1479.632771,1771.157098 1491.626738,1764.420269 1499.419646,1758.172989 1507.209144,1751.715090 1512.667222,1742.423124 1519.873594,1732.304427 1523.016798,1720.610574 1531.983686,1700.439381 1529.390368,1680.877111 1534.137163,1670.587654 1541.007725,1661.483472 1547.878850,1653.000238 1552.799909,1642.297692 1554.816840,1626.330903 1552.273189,1609.828231 1503.728120,1609.961621 1500.923361,1623.734611 1498.130497,1646.455773 1495.428947,1663.653417 1490.603649,1679.665799 1481.133370,1701.674791 1468.297960,1721.698141 1450.586161,1743.430664 1428.281726,1763.818460"/>
    <poly id="135382296" type="landuse" color="194,194,130" fill="1" layer="-3.00" shape="1452.914910,1802.416611 1470.871629,1827.462221 1523.505900,1905.103072 1527.300899,1909.521221 1531.543823,1911.614621 1537.520790,1912.005533 1542.595090,1909.583544 1783.211269,1733.911747 1779.951976,1727.289324 1778.634614,1721.799724 1767.158867,1706.461868 1752.620816,1686.671744 1749.525310,1679.580961 1746.715946,1671.343436 1743.955616,1660.255394 1742.769895,1652.313125 1744.283437,1607.613372 1659.612145,1608.531072 1660.183113,1622.604110 1656.254722,1631.106085 1649.042195,1638.508112 1642.149733,1641.569381 1634.357852,1642.017282 1625.770577,1642.156523 1618.099605,1644.188120 1603.493105,1651.321988 1594.436552,1657.168315 1589.284405,1664.193230 1581.935696,1665.543234 1566.336809,1683.116375 1558.574461,1695.949630 1555.092269,1708.469513 1552.972339,1719.259679 1550.406101,1733.062052 1552.451646,1740.580088 1552.686873,1755.079939 1549.510559,1764.734048 1537.839886,1780.247601 1529.882640,1787.517655 1517.868712,1793.023948 1506.885460,1797.493395 1496.412136,1800.524170 1477.684499,1803.079058 1462.792544,1804.340903 1458.334132,1800.122046 1452.914910,1802.416611"/>
    <poly id="135382300" type="water" color="181,209,209" fill="1" layer="-4.00" shape="1667.847419,1448.624538 1662.090649,1454.783222 1661.892571,1463.124923 1660.168392,1477.190811 1664.552509,1486.223333 1675.008075,1487.949967 1677.758696,1477.282677 1684.138947,1468.463765 1687.417307,1449.815353 1677.223949,1444.292216 1667.847419,1448.624538"/>
    <poly id="135382301" type="water" color="181,209,209" fill="1" layer="-4.00" shape="1282.077474,1945.326942 1295.602442,1951.372150 1304.776090,1958.619093 1312.150705,1971.772149 1315.970471,1986.502082 1317.767643,2016.821969 1330.152504,2037.101129 1341.507429,2054.358797 1419.173586,2161.764187 1427.746303,2173.655952 1472.532943,2214.920777 1485.007245,2227.835916 1495.837826,2240.389651 1505.873437,2254.419974 1514.442612,2267.864239 1518.446739,2278.721370 1522.073641,2295.672177 1524.063259,2316.763369 1523.603330,2340.056560 1521.352314,2350.970853 1516.714426,2369.707971 1513.516794,2391.526482 1511.553647,2412.548768 1512.069012,2427.288033 1513.238968,2444.810962 1517.260149,2463.762379 1525.334897,2478.434400 1537.293966,2494.240940 1545.429740,2502.114768 1550.050628,2508.737202 1551.412973,2515.235099 1550.267563,2543.229828 1568.082016,2541.987153 1569.607567,2530.962666 1569.556433,2517.834780 1569.226772,2506.906926 1562.132102,2493.361082 1546.272145,2474.224753 1534.641816,2460.486406 1530.806328,2432.439448 1530.554238,2415.145569 1532.296598,2398.118711 1535.053530,2377.893007 1538.493380,2365.129832 1541.807527,2345.793254 1542.588542,2332.895812 1542.323752,2316.577925 1541.234984,2297.013408 1537.787397,2281.135264 1532.948321,2265.767593 1528.414072,2251.581440 1514.412045,2232.536963 1494.392277,2208.822144 1477.783801,2193.468112 1457.588206,2175.355873 1443.843918,2162.816211 1410.624825,2116.750854 1358.972194,2042.088493 1347.477886,2024.456064 1337.344713,2006.790446 1336.889831,1978.788416 1330.880424,1962.330986 1324.411021,1950.970628 1324.149533,1917.875861 1329.668629,1904.735100 1338.236568,1893.452031 1348.929988,1895.185545 1359.838290,1893.733197 1379.345732,1882.915622 1390.134317,1873.503748 1400.304537,1860.609069 1406.610609,1844.905238 1403.492982,1837.637489 1404.781996,1833.159005 1415.265436,1822.543478 1420.744584,1818.662272 1423.719792,1821.264105 1433.694126,1813.894688 1433.651114,1811.245249 1437.514572,1808.144297 1451.364810,1798.438848 1458.334132,1800.122046 1462.792544,1804.340903 1477.684499,1803.079058 1496.412136,1800.524170 1506.885460,1797.493395 1517.868712,1793.023948 1529.882640,1787.517655 1537.839886,1780.247601 1549.510559,1764.734048 1552.686873,1755.079939 1552.451646,1740.580088 1550.406101,1733.062052 1552.972339,1719.259679 1555.092269,1708.469513 1558.574461,1695.949630 1566.336809,1683.116375 1581.935696,1665.543234 1589.284405,1664.193230 1594.436552,1657.168315 1603.493105,1651.321988 1618.099605,1644.188120 1625.770577,1642.156523 1634.357852,1642.017282 1642.149733,1641.569381 1649.042195,1638.508112 1656.254722,1631.106085 1660.183113,1622.604110 1659.613582,1608.619756 1654.132788,1567.182474 1658.835741,1555.352506 1667.768439,1544.207985 1704.235977,1522.748489 1710.545256,1510.138504 1708.763485,1500.675695 1726.517741,1490.907383 1726.685150,1480.670064 1724.872674,1469.311633 1730.176800,1455.198839 1743.435528,1448.907551 1748.233476,1443.518462 1756.488266,1430.488896 1771.393714,1425.324162 1778.405661,1416.106986 1777.244042,1404.361000 1768.049800,1399.963696 1753.782910,1403.987069 1741.408245,1424.290857 1728.028416,1443.091838 1714.054572,1445.214402 1696.994826,1437.906403 1679.056146,1436.301034 1669.673319,1440.245362 1660.296609,1444.566606 1651.622648,1452.291699 1647.533604,1461.461582 1647.736507,1473.977117 1650.890204,1487.586922 1650.439428,1499.724961 1641.003647,1520.369339 1619.410344,1534.746307 1597.092778,1544.976909 1573.810113,1555.589133 1557.092077,1568.756146 1552.182620,1587.808084 1552.273189,1609.828231 1554.816840,1626.330903 1552.799909,1642.297692 1547.878850,1653.000238 1541.007725,1661.483472 1534.137163,1670.587654 1529.390368,1680.877111 1531.983686,1700.439381 1523.016798,1720.610574 1519.873594,1732.304427 1512.667222,1742.423124 1507.209144,1751.715090 1499.419646,1758.172989 1491.626738,1764.420269 1479.632771,1771.157098 1463.519329,1772.849036 1448.390124,1770.644069 1447.412548,1774.951163 1431.920640,1771.521291 1420.141292,1781.503619 1397.580674,1796.661906 1388.639719,1803.748455 1385.367940,1806.340837 1376.641744,1830.755146 1371.566416,1839.564174 1360.654610,1849.599019 1340.706121,1864.338011 1312.895280,1876.931644 1296.332126,1880.238982 1282.328994,1879.934266 1265.301128,1878.669675 1258.951191,1877.597492 1252.122187,1876.344596 1244.236454,1875.108879 1237.244222,1874.945313 1229.529245,1876.013229 1222.577316,1877.157456 1216.927474,1878.147459 1210.772406,1876.761661 1198.942741,1873.671788 1191.826850,1868.830935 1185.062622,1863.363415 1176.029085,1855.959051 1171.604325,1851.473640 1170.150765,1847.583049 1126.221509,1798.310647 1092.717661,1762.407826 1091.520533,1760.819473 1089.962863,1758.726915 1089.267704,1755.799781 1088.464614,1753.262499 1088.815631,1750.839505 1089.146705,1748.361393 1090.908873,1746.048506 1113.189946,1726.015167 1162.316066,1681.405794 1164.898100,1682.661161 1169.788607,1678.889191 1170.767589,1675.846126 1173.626715,1672.473105 1177.398590,1670.183003 1179.302185,1668.366813 1180.583116,1665.152514 1183.178628,1663.136573 1187.248190,1661.584561 1188.850682,1658.819662 1191.814815,1657.219092 1192.095974,1654.597646 1194.807386,1653.267308 1197.103301,1651.566718 1199.611185,1650.017921 1202.978807,1649.220252 1203.913685,1647.563965 1204.538839,1645.014548 1206.254380,1643.345571 1208.554864,1643.097496 1211.363315,1642.464157 1213.837237,1640.583262 1215.421990,1638.483963 1215.938129,1636.257884 1216.319333,1633.346514 1217.398280,1631.765506 1219.241583,1630.926088 1221.268893,1631.447559 1223.639264,1631.397944 1225.668468,1630.278295 1227.079006,1628.592102 1226.564463,1626.815225 1226.016704,1625.338275 1227.519714,1622.896565 1229.676619,1621.431100 1232.493251,1618.956952 1235.141914,1616.108528 1237.684470,1614.348497 1239.245715,1612.560060 1241.883059,1609.600938 1243.187950,1607.273334 1245.387543,1604.332415 1248.032970,1601.284455 1287.732956,1565.489004 1290.178864,1563.054162 1292.284612,1561.955461 1294.006149,1561.240009 1295.388580,1561.339522 1297.980276,1561.430479 1300.928293,1560.007619 1303.411230,1558.093336 1305.123715,1555.648236 1307.097369,1552.866240 1309.168593,1550.814497 1311.932306,1549.183954 1315.865450,1548.609995 1319.451697,1547.198950 1321.022824,1544.844857 1321.202694,1541.848056 1321.676819,1539.378720 1322.864117,1538.017733 1324.933435,1537.607114 1328.066356,1537.600580 1330.491844,1536.252747 1332.526794,1534.312482 1333.108887,1532.040986 1333.494991,1529.428931 1334.964865,1528.462540 1337.589766,1527.665892 1339.500638,1526.880842 1342.046632,1524.743776 1342.457159,1521.876291 1342.860910,1520.350618 1344.838247,1519.553401 1346.060168,1516.805800 1347.908520,1515.689114 1349.527144,1515.086227 1355.171007,1511.956336 1356.288610,1510.407982 1357.661622,1508.167996 1358.208182,1506.640004 1360.855911,1506.075849 1362.178221,1502.472810 1364.340951,1501.949798 1366.537200,1499.385969 1369.264474,1497.855830 1372.299482,1497.096886 1378.080707,1491.869064 1375.927576,1489.464570 1412.550023,1457.622750 1457.850690,1418.898456 1505.454537,1378.307420 1552.366287,1339.058461 1623.712848,1279.731595 1637.340677,1268.000876 1650.955598,1255.472020 1664.055533,1241.720718 1691.626296,1211.246433 1730.916127,1165.823676 1732.734398,1165.783127 1735.685453,1165.713137 1738.961638,1168.665016 1741.894006,1169.792879 1746.022930,1169.537482 1749.503915,1167.496262 1751.743085,1164.632443 1752.836003,1160.966651 1752.222027,1156.574500 1750.607649,1154.504944 1747.737079,1151.901320 1748.923043,1149.864016 1751.271965,1149.071951 1754.567563,1149.694955 1782.586868,1141.002393 1786.257736,1140.100217 1834.395576,1134.685688 1842.004630,1132.333714 1846.884800,1132.598438 1850.232020,1128.175413 1843.677574,1119.200136 1838.029009,1111.474273 1825.817803,1116.617430 1819.515073,1117.307177 1797.299965,1119.230410 1779.170865,1121.774987 1753.209427,1129.347553 1735.634517,1136.119000 1730.411233,1138.188453 1718.865288,1149.707884 1669.237297,1205.366525 1651.833833,1225.641035 1635.336680,1244.248711 1614.485429,1262.139736 1593.109179,1279.950613 1566.216520,1302.297464 1540.526971,1324.247869 1441.306133,1407.557397 1285.800317,1544.419095 1230.275062,1590.285011 1175.380049,1639.157065 1092.795889,1718.041629 1088.250170,1719.590337 1083.236047,1719.272717 1078.237604,1716.992187 1074.648731,1715.309682 1060.123265,1708.083459 1058.829725,1704.667081 1058.024744,1700.843570 1047.267834,1709.856089 1038.033014,1717.601946 1042.103034,1720.762463 1039.465468,1732.481531 1037.259665,1743.228877 1032.652859,1757.408364 1029.786345,1762.078898 954.115213,1841.983220 933.134337,1862.882840 928.762777,1866.934781 920.629665,1872.733423 834.092339,1915.070491 789.746282,1934.388456 781.055675,1937.523976 773.754745,1941.790056 767.311402,1946.674208 762.401317,1953.318619 757.178456,1961.221129 755.298997,1968.015739 754.963758,1976.659133 756.997787,1985.773978 760.886831,1993.605589 766.035171,1999.243333 775.053421,2006.281685 862.057001,2072.126755 865.895916,2076.887707 867.157233,2081.247109 866.743409,2085.655976 864.456415,2089.064129 786.343836,2165.006746 780.405227,2172.222343 722.121348,2247.709287 646.872081,2339.684727 617.238791,2375.274347 583.388026,2414.403589 604.610524,2428.849345 621.124355,2440.089768 625.233674,2445.666770 630.100412,2452.728364 636.163895,2459.604109 643.727741,2468.562196 650.005533,2477.485825 765.137654,2624.138693 776.858991,2624.712715 770.288217,2615.328081 759.268753,2592.975907 752.458097,2579.392653 746.245996,2579.161280 733.002087,2561.713247 737.393270,2560.055993 719.031270,2537.646161 709.091027,2524.845805 685.172551,2495.707213 654.741191,2459.001665 623.549043,2424.703724 622.402136,2420.941257 622.306954,2416.274551 622.959003,2411.883955 623.998348,2407.886227 627.006034,2404.887616 663.295133,2361.117029 703.357040,2312.195446 742.934790,2262.173086 800.324348,2186.146410 804.264800,2181.946189 809.571481,2176.271115 817.044911,2168.575896 880.718299,2107.039780 882.918993,2104.764061 886.051092,2101.209085 887.587695,2098.500645 888.351302,2096.858201 890.031328,2093.016401 891.243436,2089.093514 892.040281,2085.399161 892.307985,2081.957373 892.450666,2078.440001 891.869475,2074.912243 890.753544,2071.293398 889.216028,2067.515093 886.870041,2063.794310 884.396732,2060.441521 879.344227,2054.835429 874.468774,2050.745577 866.524860,2044.765227 820.817270,2010.880564 783.172643,1982.697218 779.992093,1979.189650 777.390746,1976.748226 776.717134,1974.563684 775.536613,1972.243255 774.982549,1969.214040 776.392787,1967.516695 777.293282,1966.093782 777.616254,1964.292184 778.996182,1963.072138 780.430882,1961.707050 782.876259,1961.589577 783.302506,1959.697589 784.002360,1958.233592 785.613299,1957.165021 787.816883,1956.818632 789.829760,1957.040864 792.041112,1957.171154 794.006351,1955.054494 796.480903,1953.805524 802.205899,1950.418953 809.464524,1947.062838 838.407742,1936.800133 848.469792,1929.583937 908.668144,1899.562719 934.639821,1886.332621 941.857289,1881.613391 946.359467,1877.980690 951.455051,1873.362545 959.939294,1864.564325 993.716107,1828.298547 1041.482086,1776.824745 1044.118471,1774.397827 1046.877897,1771.924555 1049.937360,1770.333479 1053.006563,1769.341022 1056.223259,1768.634466 1060.281917,1768.756936 1064.699313,1769.272756 1068.144789,1770.336636 1071.871617,1772.305193 1075.800787,1775.589987 1088.482861,1788.922689 1105.565912,1805.277500 1127.819189,1829.798061 1151.503363,1856.235875 1155.914498,1861.054154 1161.507267,1867.095127 1163.018242,1869.831583 1163.923751,1873.398431 1164.212325,1878.261571 1164.431373,1882.948426 1163.991623,1888.699398 1162.470654,1896.474961 1156.825564,1914.153050 1153.592734,1920.891960 1151.372285,1924.886648 1146.274552,1930.547043 1142.530434,1935.708624 1139.608071,1940.457657 1137.553438,1944.693598 1136.902538,1948.585145 1143.271885,1950.266801 1136.965969,1978.833432 1136.251790,1978.833958 1136.736514,1980.533698 1136.597066,1982.498623 1137.169308,1984.895512 1137.049656,1987.492158 1136.232488,1989.357221 1135.002716,1991.029402 1135.803038,1995.740070 1136.984775,1995.798470 1138.131497,1996.045943 1139.538323,1996.477690 1140.570300,1997.281453 1141.204241,1998.202573 1141.905724,1999.178038 1142.859953,2000.470957 1143.607377,2000.758190 1144.819837,2000.949153 1146.062118,2001.217250 1147.513659,2001.470855 1149.207704,2001.997728 1150.836733,2002.625456 1152.926504,2003.478548 1155.016671,2004.941499 1157.511001,2006.664002 1159.412750,2008.251991 1161.194165,2010.052618 1162.832959,2011.866653 1164.453795,2013.747512 1166.129802,2016.093188 1168.089602,2018.323365 1169.078335,2019.981645 1170.905464,2023.422622 1198.232738,2003.961596 1228.162184,1982.307189 1230.471213,1985.518573 1249.047655,1973.096955 1247.297816,1970.308928 1247.150122,1969.424252 1247.039218,1967.873671 1247.492155,1966.446988 1248.332168,1964.814421 1249.791009,1963.759484 1251.280573,1962.837110 1253.419507,1962.613844 1255.644690,1963.010129 1257.711845,1964.229528 1264.577300,1958.939646 1282.077474,1945.326942"/>
    <poly id="135405204" type="building" color="255,230,230" fill="1" layer="-1.00" shape="1423.803699,1724.959654 1435.087172,1709.064160 1447.323208,1692.011109 1454.886485,1675.721404 1459.696798,1658.788905 1477.697451,1658.951377 1476.954198,1625.476372 1451.349874,1626.801193 1417.714717,1627.347200 1413.324479,1646.102492 1407.309944,1661.003206 1400.683033,1674.549990 1392.089554,1687.208372 1386.334018,1694.598023 1423.803699,1724.959654"/>
    <poly id="135405205" type="building" color="255,230,230" fill="1" layer="-1.00" shape="1503.383582,1521.237595 1488.840561,1505.295562 1468.956270,1521.108789 1462.259012,1530.332174 1458.501233,1539.951393 1458.957747,1556.343775 1438.446638,1557.585952 1437.346412,1526.179190 1441.107776,1516.781674 1474.103490,1489.134927 1494.744949,1471.269157 1480.387029,1454.414877 1436.544032,1489.068140 1422.892365,1503.405323 1417.778612,1513.966910 1415.384602,1523.120468 1415.237784,1573.907885 1484.434379,1571.199077 1484.286925,1549.789709 1483.950277,1541.367965 1486.797458,1536.076933 1490.068436,1532.841474 1503.383582,1521.237595"/>
    <poly id="135406216" type="leisure" color="207,245,201" fill="1" layer="-2.00" shape="1568.505112,2214.172755 1587.656850,2241.328112 1618.416688,2284.961134 1643.269848,2320.207370 1651.869431,2314.989409 1663.910738,2317.078365 1672.074461,2316.690957 1681.994985,2314.245887 1691.369636,2309.259339 1698.428317,2303.556332 1705.449806,2295.558629 1711.116245,2283.269498 1712.998189,2273.070902 1719.307730,2268.145157 1644.660547,2159.934794 1641.717337,2161.645787 1630.898996,2155.711503 1615.342346,2152.947752 1602.819737,2156.421952 1591.179483,2163.219474 1581.366190,2172.282677 1575.881341,2180.499479 1571.919664,2188.691574 1570.763613,2196.084139 1569.872870,2203.982468 1571.537378,2212.083288 1568.505112,2214.172755"/>
    <poly id="135406217" type="leisure" color="207,245,201" fill="1" layer="-2.00" shape="1583.114434,2210.198942 1642.148909,2298.647457 1697.328866,2262.169960 1638.294692,2173.721151 1583.114434,2210.198942"/>
    <poly id="135406217#1" type="sport" color="79,230,125" fill="1" layer="-2.00" shape="1583.114434,2210.198942 1642.148909,2298.647457 1697.328866,2262.169960 1638.294692,2173.721151 1583.114434,2210.198942"/>