<?xml version="1.0" encoding="UTF-8"?>

<!-- generated on 2024-05-29 23:08:02 by Eclipse SUMO polyconvert Version 1.19.0
<configuration xmlns:xsi="http://www.w3.org/2001/XMLSchema-instance" xsi:noNamespaceSchemaLocation="http://sumo.dlr.de/xsd/polyconvertConfiguration.xsd">

    <input>
        <net-file value="sumodata\map.net.xml"/>
        <osm-files value="sumodata\map.osm"/>
    </input>

    <output>
        <output-file value="sumodata\map.poly.xml"/>
    </output>

</configuration>
-->

<additional xmlns:xsi="http://www.w3.org/2001/XMLSchema-instance" xsi:noNamespaceSchemaLocation="http://sumo.dlr.de/xsd/additional_file.xsd">
    <location netOffset="-322268.60,-3460613.82" convBoundary="-1928.02,-17300.46,26590.68,17192.37" origBoundary="121.111163,31.112412,121.412789,31.423193" projParameter="+proj=utm +zone=51 +ellps=WGS84 +datum=WGS84 +units=m +no_defs"/>

    <poly id="102774611" type="building" color="255,230,230" fill="1" layer="-1.00" shape="6067.599481,3207.493808 6072.790323,3201.764835 6078.860380,3195.067870 6085.463610,3187.785585 5973.819127,3087.586564 5967.290786,3094.790074 5961.146030,3101.577034 5955.955010,3107.294976 6067.599481,3207.493808"/>
    <poly id="1047794565" type="water" color="181,209,209" fill="0" layer="-4.00" shape="10124.101347,798.708221 10123.813795,673.260489 10124.870691,566.408474 10131.236301,524.260321 10134.660134,480.983760 10168.121636,442.428397 10209.123588,382.796156 10222.307725,350.130678"/>
    <poly id="1047794566" type="water" color="181,209,209" fill="0" layer="-4.00" shape="9958.981751,1229.195761 9993.644029,1168.832020 10015.652650,1150.961080 10024.592718,1122.787213 10040.267696,1112.025251 10067.278059,1112.758266 10087.721261,1107.176084 10095.226623,1098.884242 10091.386965,1079.086484 10085.776716,1058.740402"/>
    <poly id="1047794567" type="water" color="181,209,209" fill="0" layer="-4.00" shape="10085.776716,1058.740402 10091.012029,1028.153072 10122.830353,953.597952 10124.101347,798.708221"/>
    <poly id="1047794568" type="water" color="181,209,209" fill="0" layer="-4.00" shape="10323.253467,316.709403 10330.161429,317.497465 10335.504346,319.286234 10354.347981,325.583469 10385.410690,341.432618 10416.485514,375.987477 10450.775780,391.785399 10461.146978,398.339706"/>
    <poly id="1047794569" type="water" color="181,209,209" fill="0" layer="-4.00" shape="10222.307725,350.130678 10305.468241,314.675406 10323.253467,316.709403"/>
    <poly id="1047794572" type="water" color="181,209,209" fill="0" layer="-4.00" shape="10335.504346,319.286234 10307.016475,127.958409 10305.337985,121.842287 10297.106873,91.824606 10282.363951,60.192042 10279.102240,50.952104 10287.864927,14.520711 10288.031049,-30.633148 10286.422897,-47.871868 10294.843234,-50.212618 10328.173943,-44.523258"/>
    <poly id="1047794573" type="water" color="181,209,209" fill="0" layer="-4.00" shape="10305.337985,121.842287 10361.900026,139.036995 10377.728959,155.162120 10383.670774,165.246448 10403.079317,183.077612 10436.610143,193.609631 10480.173307,219.915781 10511.211490,241.997268 10563.857468,280.101163 10595.900558,309.695779"/>
    <poly id="1047794576" type="water" color="181,209,209" fill="0" layer="-4.00" shape="9405.393789,2196.781976 9410.875999,2057.635638 9432.406950,1935.296964 9441.099214,1871.610585 9437.267104,1855.915537 9420.391255,1823.142920 9380.534595,1790.228716 9371.085376,1774.623752 9363.202163,1728.999827 9366.358222,1638.978746 9358.997208,1530.309472 9370.435241,1479.286230 9378.817274,1428.312004 9374.284864,1400.431075 9365.870216,1385.818552 9342.758319,1377.551352 9282.865987,1402.407205 9241.563742,1407.128142 9206.360458,1409.733291 9153.105807,1401.939201 9065.421633,1381.492139 9003.059632,1379.444680 8692.527472,1375.279836"/>
    <poly id="1047794579" type="water" color="181,209,209" fill="0" layer="-4.00" shape="7821.372282,2549.219363 7894.079268,2553.653452 7974.841784,2546.303849 8225.054931,2555.677276 8721.477828,2573.153598"/>
    <poly id="1047794584" type="water" color="181,209,209" fill="0" layer="-4.00" shape="6533.569582,3781.585207 6580.661053,3772.234431 6663.925592,3741.403296 6720.782333,3720.140147 6805.331062,3705.556078 6837.901103,3698.416811 6881.894513,3671.265414 6948.195385,3665.107534 6999.319982,3668.345005 7034.683630,3643.873966 7060.718931,3611.936997 7099.287341,3596.573153 7154.786644,3586.012730 7204.223291,3579.110532 7263.259350,3566.464028 7304.926188,3553.079820 7348.408727,3525.439808 7381.569082,3491.857819 7393.480599,3480.731235"/>
    <poly id="1047794585" type="water" color="181,209,209" fill="0" layer="-4.00" shape="6881.894513,3671.265414 6840.536285,3609.422000 6818.801715,3560.476558 6808.041789,3527.109130 6808.696094,3504.732982 6810.353708,3480.821369 6802.782839,3455.019795 6751.284300,3335.404469 6729.300931,3239.691960 6703.149538,3139.478952 6694.691063,3122.340928 6650.016656,3076.297826 6574.550241,3021.620091 6553.120041,2991.476227 6558.620380,2984.267700 6601.878291,2974.924330 6632.363693,2964.769217 6633.502483,2956.356661"/>
    <poly id="1047794586" type="water" color="181,209,209" fill="0" layer="-4.00" shape="6628.470019,2914.003034 6590.338446,2862.264865 6462.865516,2706.920725"/>
    <poly id="1047794587" type="water" color="181,209,209" fill="0" layer="-4.00" shape="6633.502483,2956.356661 6628.470019,2914.003034"/>
    <poly id="1052597241" type="water" color="181,209,209" fill="0" layer="-4.00" shape="8729.908006,3012.726748 8859.558881,2993.408479 8872.352754,2993.202627 8880.970641,2998.574886 8885.845295,3010.383175 8888.537423,3045.146204 8892.547076,3055.271894 8904.171872,3062.303402 9025.686842,3085.386817 9116.910257,3082.224260 9164.459283,3067.877207 9168.965556,3056.771935 9182.845978,2911.380537 9187.409579,2903.246033 9199.292158,2899.651102 9305.452924,2882.600706 9312.627310,2879.913087 9315.739987,2872.733347 9325.627366,2797.007777 9322.504825,2781.024166 9314.795752,2769.383153 9304.554408,2755.997559 9302.248605,2746.409896 9301.406569,2716.484938 9306.103936,2629.443860 9303.084148,2619.867654"/>
    <poly id="1052597242" type="water" color="181,209,209" fill="0" layer="-4.00" shape="9488.932681,2616.166403 9370.084820,2621.287635 9303.084148,2619.867654 9259.579356,2609.865597 9220.078582,2603.724703 9195.228494,2595.574575 9175.395019,2587.332857 9150.855144,2575.973321 9132.849469,2569.487546 9049.711522,2545.153749 8999.176287,2521.372032 8967.810299,2508.337410 8941.774943,2493.420849 8927.988031,2482.243735 8916.480480,2479.579091 8881.771570,2481.911479 8867.109469,2483.222906 8847.679445,2478.190910 8743.997783,2445.995698 8718.935553,2440.688688"/>
    <poly id="1052597243" type="residential" color="235,235,227" fill="1" layer="-3.00" shape="8808.316933,2216.773375 8804.621621,2040.971710 9030.159579,2034.783748 9050.049827,2044.709768 9051.243419,2225.674281 8808.316933,2216.773375"/>
    <poly id="1052597244" type="residential" color="235,235,227" fill="1" layer="-3.00" shape="9080.293290,2218.377141 9086.142456,2048.398935 9097.043701,2032.855411 9234.098010,2019.555475 9238.555973,2029.729532 9211.529894,2217.123433 9080.293290,2218.377141"/>
    <poly id="1052597245" type="residential" color="235,235,227" fill="1" layer="-3.00" shape="8810.922540,2005.864434 8813.483164,1791.541083 9049.331680,1786.041784 9057.262557,1799.575185 9059.339972,1982.233030 9037.400353,2004.784359 8810.922540,2005.864434"/>
    <poly id="1052597246" type="residential" color="235,235,227" fill="1" layer="-3.00" shape="9096.550122,2002.126507 9087.794230,1991.167739 9093.314888,1800.703671 9110.223760,1785.063693 9261.948673,1776.651522 9237.994313,1994.732737 9096.550122,2002.126507"/>
    <poly id="1052597247" type="residential" color="235,235,227" fill="1" layer="-3.00" shape="8816.943396,1740.257299 8806.404666,1725.058411 8802.617544,1596.206348 8819.649943,1588.248130 9036.623827,1583.052459 9067.714065,1595.360028 9069.715703,1719.971670 9043.303507,1731.495379 8816.943396,1740.257299"/>
    <poly id="1052597248" type="residential" color="235,235,227" fill="1" layer="-3.00" shape="9113.585298,1726.951276 9102.249188,1716.033924 9102.923954,1597.355920 9112.221705,1588.668605 9284.660232,1588.462320 9268.793174,1721.898521 9113.585298,1726.951276"/>
    <poly id="1052597249" type="residential" color="235,235,227" fill="1" layer="-3.00" shape="8801.129007,1556.955415 8799.124119,1432.332627 8813.562957,1423.562339 9060.746689,1428.980864 9071.239982,1440.765525 9068.701094,1550.092749 9047.452783,1562.387277 8801.129007,1556.955415"/>
    <poly id="1052597250" type="residential" color="235,235,227" fill="1" layer="-3.00" shape="9110.041964,1559.674400 9097.794002,1545.356486 9101.423082,1450.526383 9108.177809,1443.587512 9209.652065,1458.180718 9281.502963,1445.074678 9319.146945,1438.494284 9322.069276,1459.792393 9304.609594,1548.013743 9298.766433,1558.353060 9110.041964,1559.674400"/>
    <poly id="1052597251" type="water" color="181,209,209" fill="0" layer="-4.00" shape="10102.399379,2396.317441 10089.627735,2377.682430 10084.166858,2355.925755 10073.167084,2288.451913 10076.506306,2252.483689 10066.408461,2223.006025 10052.450461,2196.883240 10048.560522,2179.292852 10047.878165,2155.053713 10048.237784,2121.528142 10047.598458,2099.982766 10040.378988,2075.448867 10039.009541,2070.791493 10029.949728,2049.680004 10008.888591,2011.695402 10005.198024,1988.114178 10003.783314,1974.664536 10014.563308,1952.637353 10030.522790,1934.729903 10031.850128,1924.230293 10033.133084,1891.277660 10032.720810,1846.387872 10048.803363,1817.689620 10074.706980,1801.109274 10078.070384,1766.637616 10077.973622,1742.089759 10060.885384,1740.621771 10018.580863,1728.423948 9976.871457,1716.527252 9969.825771,1708.257096"/>
    <poly id="1052598217" type="water" color="181,209,209" fill="0" layer="-4.00" shape="9778.735499,2113.295352 9782.916169,2082.957462 9784.898779,2056.291695 9791.798991,2036.421998"/>
    <poly id="1052598218" type="water" color="181,209,209" fill="0" layer="-4.00" shape="9971.918163,2088.917115 9968.355608,2057.261593 9962.073001,2044.887685 9947.275290,2038.349232 9925.424900,2037.988808 9891.146491,2045.300604"/>
    <poly id="1052598219" type="water" color="181,209,209" fill="0" layer="-4.00" shape="10074.706980,1801.109274 10085.724679,1802.297205 10105.831205,1805.535513 10124.763500,1802.028768 10136.157617,1797.566820 10184.376556,1788.957858 10217.315199,1809.821522"/>
    <poly id="1052598220" type="water" color="181,209,209" fill="0" layer="-4.00" shape="10184.376556,1788.957858 10191.272397,1771.738648 10199.374505,1740.595533 10204.243606,1709.149187"/>
    <poly id="1052598221" type="water" color="181,209,209" fill="0" layer="-4.00" shape="10195.956740,1504.304064 10246.954218,1217.824196"/>
    <poly id="1052598222" type="water" color="181,209,209" fill="0" layer="-4.00" shape="10246.954218,1217.824196 10252.878245,1204.723217"/>
    <poly id="1052598223" type="water" color="181,209,209" fill="0" layer="-4.00" shape="10077.973622,1742.089759 10086.879976,1717.797329 10157.698235,1576.211982 10195.956740,1504.304064"/>
    <poly id="1052598224" type="water" color="181,209,209" fill="0" layer="-4.00" shape="9969.825771,1708.257096 9953.398288,1695.701545 9940.716862,1692.311592 9908.692833,1664.980753 9903.625946,1650.635904 9878.982392,1651.927973 9863.150469,1658.767503 9849.941010,1660.475613 9834.385106,1666.113242 9815.329387,1659.532147 9798.987019,1653.506455 9776.508149,1639.506678 9755.495023,1623.676110 9748.391693,1612.413176 9745.458037,1598.089704 9742.514798,1583.167619 9738.134351,1572.459897 9726.527825,1561.867789"/>
    <poly id="1052598225" type="water" color="181,209,209" fill="1" layer="-4.00" shape="10200.250899,1713.160309 10187.559868,1702.596119 10180.511805,1699.537346 10154.297505,1691.306855 10152.370462,1690.494903 10151.263099,1687.341337 10151.824036,1683.107760 10153.204833,1676.543655 10156.128135,1673.547525 10158.443826,1672.457184 10214.425803,1684.226675 10216.244939,1692.003779 10215.914147,1698.129769 10211.727974,1715.083959 10200.250899,1713.160309"/>
    <poly id="1052598226" type="water" color="181,209,209" fill="1" layer="-4.00" shape="9957.793454,1642.385475 9963.080217,1641.291971 9964.814886,1639.002249 9964.493540,1634.982344 9956.327924,1629.335829 9951.385080,1620.366786 9913.895276,1613.924846 9908.371471,1616.275137 9903.293420,1630.427309 9905.120567,1633.924174 9912.212729,1635.562767 9923.516002,1631.368165 9957.793454,1642.385475"/>
    <poly id="1052598227" type="water" color="181,209,209" fill="1" layer="-4.00" shape="9866.473921,1621.834789 9859.030548,1620.268371 9823.607986,1607.329237 9818.996846,1610.773809 9809.083247,1601.230107 9819.111500,1591.145735 9838.193919,1591.051279 9845.002229,1592.206483 9846.561689,1596.827534 9850.440193,1600.568799 9867.297421,1606.630696 9874.828522,1613.684411 9874.257589,1617.286136 9866.473921,1621.834789"/>
    <poly id="1058065494" type="building" color="255,230,230" fill="1" layer="-1.00" shape="8242.211434,1999.938862 8340.823100,1976.614167 8358.838368,2052.068175 8260.237092,2075.403664 8242.211434,1999.938862"/>
    <poly id="1063950865" type="building" color="255,230,230" fill="1" layer="-1.00" shape="9350.221547,731.693944 9404.897050,732.868918 9407.052710,633.827106 9352.376871,632.663184 9350.221547,731.693944"/>
    <poly id="1063950866" type="building" color="255,230,230" fill="1" layer="-1.00" shape="9280.142390,723.159713 9327.977949,724.211134 9330.176488,625.512314 9282.340482,624.460863 9280.142390,723.159713"/>
    <poly id="1063950867" type="building" color="255,230,230" fill="1" layer="-1.00" shape="9194.000932,703.030273 9195.812442,618.275548 9222.545293,618.833511 9220.733747,703.599308 9194.000932,703.030273"/>
    <poly id="1063950868" type="building" color="255,230,230" fill="1" layer="-1.00" shape="9226.873719,721.230986 9267.996972,722.400910 9270.836794,623.935701 9229.713336,622.776835 9226.873719,721.230986"/>
    <poly id="1085982602" type="building" color="255,230,230" fill="1" layer="-1.00" shape="6840.669830,1552.385682 6840.520687,1541.465978 6876.309885,1540.950121 6876.458990,1551.869824 6840.669830,1552.385682"/>
    <poly id="1085982603" type="building" color="255,230,230" fill="1" layer="-1.00" shape="6869.547257,1632.761697 6869.394433,1617.517554 6926.104944,1616.960825 6926.257686,1632.204965 6869.547257,1632.761697"/>
    <poly id="1085982604" type="building" color="255,230,230" fill="1" layer="-1.00" shape="6890.930505,1493.109503 6890.771898,1482.189957 6926.561290,1481.674279 6926.719860,1492.593825 6890.930505,1493.109503"/>
    <poly id="1085982605" type="building" color="255,230,230" fill="1" layer="-1.00" shape="6883.761934,1749.613428 6883.616514,1734.823790 6944.277563,1734.213929 6944.422897,1749.003564 6883.761934,1749.613428"/>
    <poly id="1085982606" type="building" color="255,230,230" fill="1" layer="-1.00" shape="6880.585452,1690.175535 6880.430513,1675.386053 6941.091906,1674.776189 6941.246760,1689.565668 6880.585452,1690.175535"/>
    <poly id="1085982607" type="building" color="255,230,230" fill="1" layer="-1.00" shape="6892.054270,1534.085236 6891.895661,1523.165689 6927.684914,1522.650009 6927.843485,1533.569555 6892.054270,1534.085236"/>
    <poly id="1085982608" type="building" color="255,230,230" fill="1" layer="-1.00" shape="6826.997526,1510.438793 6826.838851,1499.519244 6862.628374,1499.014431 6862.786832,1509.922893 6826.997526,1510.438793"/>
    <poly id="1085982609" type="building" color="255,230,230" fill="1" layer="-1.00" shape="6893.688414,1578.334850 6893.539325,1567.415147 6929.328426,1566.899466 6929.477478,1577.819168 6893.688414,1578.334850"/>
    <poly id="1085983329" type="leisure" color="207,245,201" fill="1" layer="-2.00" shape="6729.676655,1442.986418 6747.681409,1437.492747 6737.696244,1405.033081 6719.691437,1410.526766 6729.676655,1442.986418"/>
    <poly id="1085983329#1" type="sport" color="79,230,125" fill="1" layer="-2.00" shape="6729.676655,1442.986418 6747.681409,1437.492747 6737.696244,1405.033081 6719.691437,1410.526766 6729.676655,1442.986418"/>
    <poly id="1085983330" type="leisure" color="207,245,201" fill="1" layer="-2.00" shape="6694.183748,1452.945302 6709.580558,1448.126084 6699.700466,1416.862290 6684.294092,1421.681674 6694.183748,1452.945302"/>
    <poly id="1085983330#1" type="sport" color="79,230,125" fill="1" layer="-2.00" shape="6694.183748,1452.945302 6709.580558,1448.126084 6699.700466,1416.862290 6684.294092,1421.681674 6694.183748,1452.945302"/>
    <poly id="1085983331" type="leisure" color="207,245,201" fill="1" layer="-2.00" shape="6711.372851,1448.828733 6729.377768,1443.346116 6719.392369,1410.875378 6701.387580,1416.369096 6711.372851,1448.828733"/>
    <poly id="1085983331#1" type="sport" color="79,230,125" fill="1" layer="-2.00" shape="6711.372851,1448.828733 6729.377768,1443.346116 6719.392369,1410.875378 6701.387580,1416.369096 6711.372851,1448.828733"/>
    <poly id="1085983332" type="building" color="255,230,230" fill="1" layer="-1.00" shape="6938.763591,1812.066959 6958.394834,1811.758731 6974.106921,1826.938317 7007.227900,1792.990205 6984.133830,1770.678766 7024.004656,1769.398416 7022.770879,1731.584685 7010.554175,1719.364249 6973.081022,1719.940337 6973.868818,1770.723728 6938.128742,1771.282856 6938.763591,1812.066959"/>
    <poly id="1085984768" type="building" color="255,230,230" fill="1" layer="-1.00" shape="6621.550840,1777.346494 6621.964933,1770.032440 6667.840677,1772.589288 6667.426733,1779.914425 6621.550840,1777.346494"/>
    <poly id="1085984769" type="building" color="255,230,230" fill="1" layer="-1.00" shape="6809.823725,1885.220056 6810.263884,1876.574975 6839.923136,1878.054845 6839.483133,1886.711008 6809.823725,1885.220056"/>
    <poly id="1085984770" type="building" color="255,230,230" fill="1" layer="-1.00" shape="6627.669717,1811.554523 6628.366099,1799.356940 6666.788437,1801.525170 6666.082670,1813.733989 6627.669717,1811.554523"/>
    <poly id="1085984771" type="building" color="255,230,230" fill="1" layer="-1.00" shape="6771.698474,1821.150659 6772.441226,1809.451321 6814.098822,1812.055300 6813.356205,1823.765719 6771.698474,1821.150659"/>
    <poly id="1085984772" type="building" color="255,230,230" fill="1" layer="-1.00" shape="6623.523181,1883.763728 6624.352110,1871.519628 6683.944408,1875.494085 6683.115591,1887.749263 6623.523181,1883.763728"/>
    <poly id="1085984773" type="building" color="255,230,230" fill="1" layer="-1.00" shape="6689.950033,1919.716876 6690.769513,1907.472940 6750.361561,1911.447764 6749.532492,1923.691848 6689.950033,1919.716876"/>
    <poly id="1085984774" type="building" color="255,230,230" fill="1" layer="-1.00" shape="6693.566665,1815.537199 6694.167428,1803.895605 6762.627664,1807.393421 6762.027007,1819.046093 6693.566665,1815.537199"/>
    <poly id="1085984775" type="building" color="255,230,230" fill="1" layer="-1.00" shape="6674.548718,1781.594726 6674.962666,1774.269590 6720.829025,1776.837909 6720.415045,1784.163041 6674.548718,1781.594726"/>
    <poly id="1085984776" type="building" color="255,230,230" fill="1" layer="-1.00" shape="6728.705766,1784.515904 6729.119751,1777.190772 6774.995409,1779.748085 6774.581392,1787.073214 6728.705766,1784.515904"/>
    <poly id="1085984777" type="building" color="255,230,230" fill="1" layer="-1.00" shape="6782.415713,1788.054504 6782.829735,1780.729376 6828.696011,1783.298163 6828.281957,1790.623288 6782.415713,1788.054504"/>
    <poly id="1085984778" type="building" color="255,230,230" fill="1" layer="-1.00" shape="6764.313154,1924.937005 6765.142240,1912.692923 6824.734204,1916.668166 6823.905050,1928.912241 6764.313154,1924.937005"/>
    <poly id="1085984779" type="building" color="255,230,230" fill="1" layer="-1.00" shape="6424.202858,1768.389301 6424.735471,1755.506877 6444.394649,1756.317176 6443.894966,1768.300894 6448.773961,1768.498513 6448.115706,1784.188372 6417.421776,1782.937152 6418.037333,1768.135064 6424.202858,1768.389301"/>
    <poly id="1085988613" type="school" color="237,199,199" fill="1" layer="-2.00" shape="5625.428353,2831.171628 5739.562477,2927.778141 5740.867106,2937.082234 5625.885166,3069.812106 5614.450837,3069.899826 5502.124467,2978.997799 5502.307685,2968.693513 5625.428353,2831.171628"/>
    <poly id="1085990392" type="building" color="255,230,230" fill="1" layer="-1.00" shape="6988.980546,501.860431 6991.744210,492.002249 7033.457052,503.554867 7030.693534,513.424123 6988.980546,501.860431"/>
    <poly id="1085990393" type="building" color="255,230,230" fill="1" layer="-1.00" shape="6963.271802,560.248671 6967.705988,550.041757 7021.924185,573.344358 7017.480438,583.551403 6963.271802,560.248671"/>
    <poly id="1085990394" type="building" color="255,230,230" fill="1" layer="-1.00" shape="6985.802450,534.268133 6989.178543,524.588497 7030.076297,538.737948 7026.700172,548.417570 6985.802450,534.268133"/>
    <poly id="1085990395" type="building" color="255,230,230" fill="1" layer="-1.00" shape="6979.338137,467.044253 6981.628548,456.195802 7037.505227,467.828700 7035.224284,478.676982 6979.338137,467.044253"/>
    <poly id="1086479555" type="building" color="255,230,230" fill="1" layer="-1.00" shape="5616.453510,1577.425871 5608.613008,1569.116012 5640.578559,1539.240734 5648.419054,1547.550616 5616.453510,1577.425871"/>
    <poly id="1086479559" type="building" color="255,230,230" fill="1" layer="-1.00" shape="5626.378443,1500.253315 5669.159752,1459.733308 5623.813476,1412.318923 5581.032123,1452.839111 5626.378443,1500.253315"/>
    <poly id="1086479560" type="building" color="255,230,230" fill="1" layer="-1.00" shape="5626.196138,1600.108567 5586.371691,1558.380985 5634.068058,1513.300465 5673.892644,1555.039311 5626.196138,1600.108567"/>
    <poly id="1086479562" type="building" color="255,230,230" fill="1" layer="-1.00" shape="5695.280238,1516.577603 5701.763967,1510.084386 5679.606130,1488.170554 5673.122582,1494.674870 5695.280238,1516.577603"/>
    <poly id="1086479564" type="building" color="255,230,230" fill="1" layer="-1.00" shape="5685.763865,1544.898387 5646.187015,1503.166527 5694.460663,1457.832908 5734.037467,1499.564946 5685.763865,1544.898387"/>
    <poly id="1086485823" type="amenity" color="237,199,199" fill="1" layer="-1.00" shape="5666.461103,1432.200349 5671.978577,1426.598944 5640.467091,1395.878911 5634.959135,1401.480177 5666.461103,1432.200349"/>
    <poly id="1086486199" type="building" color="255,230,230" fill="1" layer="-1.00" shape="5653.240201,1688.905874 5664.181496,1678.979748 5720.207249,1740.091041 5712.999923,1746.585023 5709.266155,1750.028196 5653.240201,1688.905874"/>
    <poly id="1086486200" type="building" color="255,230,230" fill="1" layer="-1.00" shape="5676.834571,1674.137399 5666.611976,1663.415970 5727.325754,1606.091499 5737.558037,1616.823916 5676.834571,1674.137399"/>
    <poly id="1086486201" type="building" color="255,230,230" fill="1" layer="-1.00" shape="5776.502758,1632.796693 5766.569563,1621.715599 5719.804312,1663.176494 5729.737704,1674.268631 5776.502758,1632.796693"/>
    <poly id="1086486202" type="building" color="255,230,230" fill="1" layer="-1.00" shape="5780.509143,1612.849355 5812.967623,1582.234706 5823.064368,1592.836358 5790.605896,1623.450977 5780.509143,1612.849355"/>
    <poly id="1086486203" type="building" color="255,230,230" fill="1" layer="-1.00" shape="5700.648251,1716.925965 5686.077324,1701.197215 5715.780985,1673.942838 5735.363913,1695.078350 5718.128905,1710.884629 5713.126408,1705.477758 5700.648251,1716.925965"/>
    <poly id="1086486204" type="building" color="255,230,230" fill="1" layer="-1.00" shape="5775.094081,1684.015496 5765.077342,1673.645439 5810.327548,1630.379952 5820.344277,1640.750051 5775.094081,1684.015496"/>
    <poly id="1086486205" type="building" color="255,230,230" fill="1" layer="-1.00" shape="5749.582218,1607.301516 5739.486860,1596.788615 5784.394496,1554.105249 5794.480324,1564.618348 5749.582218,1607.301516"/>
    <poly id="1086578210" type="residential" color="235,235,227" fill="1" layer="-3.00" shape="5343.616173,859.371725 5449.705372,971.587913 5508.063154,928.949005 5569.592108,895.561746 5626.854394,870.871658 5721.342348,852.369452 5726.703002,839.496601 5694.645456,659.811041 5439.566100,604.280185 5432.695787,663.295164 5417.975762,725.089089 5401.106855,770.252236 5376.671692,824.432587 5343.616173,859.371725"/>
    <poly id="1087434190" type="building" color="255,230,230" fill="1" layer="-1.00" shape="5757.803138,2051.062983 5763.906809,1993.480040 5843.520971,2001.823318 5837.416876,2059.406197 5757.803138,2051.062983"/>
    <poly id="1104528687" type="residential" color="235,235,227" fill="1" layer="-3.00" shape="10399.775510,690.149975 10328.346994,206.622032 10288.795831,38.866685 10274.189721,-197.511932 10784.343338,-375.368106 10821.141814,-360.074437 10795.755105,-73.152571 10858.037671,-51.389043 10834.373125,61.542977 10767.016286,57.257626 10744.423162,484.356837 10574.881869,488.705526 10561.400071,705.583657 10399.775510,690.149975"/>
    <poly id="121047667" type="building" color="255,230,230" fill="1" layer="-1.00" shape="9893.360444,485.634795 9871.436672,485.652466 9871.481168,574.257961 9893.404755,574.240282 9893.360444,485.634795"/>
    <poly id="1263188125" type="tourism" color="207,245,201" fill="1" layer="-2.00" shape="6420.322943,1071.131186 6377.536488,937.070913 6348.929229,843.230170 6343.326984,813.327252 6352.483033,794.870776 6540.119670,835.022612 6646.154977,857.057450 6654.967796,864.276638 6682.576358,914.512318 6657.805274,926.802595 6639.257919,962.765206 6565.521937,1001.124094 6477.534012,1046.180498 6459.362246,1050.812418 6420.322943,1071.131186"/>
    <poly id="135382292" type="landuse" color="194,194,130" fill="1" layer="-3.00" shape="7221.042194,2340.378493 7283.235632,2298.307977 7339.376765,2254.107318 7344.200357,2247.974740 7343.815783,2241.294654 7266.851996,2131.449005 7265.562982,2135.927489 7268.680609,2143.195238 7262.374537,2158.899069 7252.204317,2171.793748 7241.415732,2181.205622 7221.908290,2192.023197 7210.999988,2193.475545 7200.306568,2191.742031 7191.738629,2203.025100 7186.219533,2216.165861 7186.481021,2249.260628 7192.950424,2260.620986 7198.959831,2277.078416 7199.414713,2305.080446 7209.547886,2322.746064 7221.042194,2340.378493"/>
    <poly id="135382294" type="landuse" color="194,194,130" fill="1" layer="-3.00" shape="7290.351726,2062.108460 7293.990640,2069.811291 7309.482548,2073.241163 7310.460124,2068.934069 7325.589329,2071.139036 7341.702771,2069.447098 7353.696738,2062.710269 7361.489646,2056.462989 7369.279144,2050.005090 7374.737222,2040.713124 7381.943594,2030.594427 7385.086798,2018.900574 7394.053686,1998.729381 7391.460368,1979.167111 7396.207163,1968.877654 7403.077725,1959.773472 7409.948850,1951.290238 7414.869909,1940.587692 7416.886840,1924.620903 7414.343189,1908.118231 7365.798120,1908.251621 7362.993361,1922.024611 7360.200497,1944.745773 7357.498947,1961.943417 7352.673649,1977.955799 7343.203370,1999.964791 7330.367960,2019.988141 7312.656161,2041.720664 7290.351726,2062.108460"/>
    <poly id="135382296" type="landuse" color="194,194,130" fill="1" layer="-3.00" shape="7314.984910,2100.706611 7332.941629,2125.752221 7385.575900,2203.393072 7389.370899,2207.811221 7393.613823,2209.904621 7399.590790,2210.295533 7404.665090,2207.873544 7645.281269,2032.201747 7642.021976,2025.579324 7640.704614,2020.089724 7629.228867,2004.751868 7614.690816,1984.961744 7611.595310,1977.870961 7608.785946,1969.633436 7606.025616,1958.545394 7604.839895,1950.603125 7606.353437,1905.903372 7521.682145,1906.821072 7522.253113,1920.894110 7518.324722,1929.396085 7511.112195,1936.798112 7504.219733,1939.859381 7496.427852,1940.307282 7487.840577,1940.446523 7480.169605,1942.478120 7465.563105,1949.611988 7456.506552,1955.458315 7451.354405,1962.483230 7444.005696,1963.833234 7428.406809,1981.406375 7420.644461,1994.239630 7417.162269,2006.759513 7415.042339,2017.549679 7412.476101,2031.352052 7414.521646,2038.870088 7414.756873,2053.369939 7411.580559,2063.024048 7399.909886,2078.537601 7391.952640,2085.807655 7379.938712,2091.313948 7368.955460,2095.783395 7358.482136,2098.814170 7339.754499,2101.369058 7324.862544,2102.630903 7320.404132,2098.412046 7314.984910,2100.706611"/>
    <poly id="135382300" type="water" color="181,209,209" fill="1" layer="-4.00" shape="7529.917419,1746.914538 7524.160649,1753.073222 7523.962571,1761.414923 7522.238392,1775.480811 7526.622509,1784.513333 7537.078075,1786.239967 7539.828696,1775.572677 7546.208947,1766.753765 7549.487307,1748.105353 7539.293949,1742.582216 7529.917419,1746.914538"/>