<?xml version="1.0" encoding="UTF-8"?>

<!-- generated on 2024-05-29 16:53:04 by Eclipse SUMO netconvert Version 1.19.0
<configuration xmlns:xsi="http://www.w3.org/2001/XMLSchema-instance" xsi:noNamespaceSchemaLocation="http://sumo.dlr.de/xsd/netconvertConfiguration.xsd">

    <input>
        <osm-files value="sumodata\map.osm"/>
    </input>

    <output>
        <output-file value="sumodata\map.net.xml"/>
    </output>

    <projection>
        <proj.utm value="true"/>
    </projection>

    <tls_building>
        <tls.discard-loaded value="true"/>
    </tls_building>

    <junctions>
        <junctions.join value="true"/>
        <junctions.join-dist value="50"/>
    </junctions>

</configuration>
-->

<net version="1.16" junctionCornerDetail="5" limitTurnSpeed="5.50" xmlns:xsi="http://www.w3.org/2001/XMLSchema-instance" xsi:noNamespaceSchemaLocation="http://sumo.dlr.de/xsd/net_file.xsd">

    <location netOffset="-322268.60,-3460613.82" convBoundary="0.00,0.00,18927.52,7644.75" origBoundary="121.132100,31.262247,121.377338,31.336717" projParameter="+proj=utm +zone=51 +ellps=WGS84 +datum=WGS84 +units=m +no_defs"/>

    <type id="highway.footway" priority="1" numLanes="1" speed="2.78" allow="pedestrian" oneway="1" width="2.00"/>
    <type id="highway.motorway" priority="14" numLanes="2" speed="39.44" allow="private emergency authority army vip passenger hov taxi bus coach delivery truck trailer motorcycle evehicle custom1 custom2" oneway="1"/>
    <type id="highway.motorway_link" priority="9" numLanes="1" speed="22.22" allow="private emergency authority army vip passenger hov taxi bus coach delivery truck trailer motorcycle evehicle custom1 custom2" oneway="1"/>
    <type id="highway.path" priority="1" numLanes="1" speed="5.56" allow="pedestrian bicycle" oneway="0" width="2.00"/>
    <type id="highway.pedestrian" priority="1" numLanes="1" speed="2.78" allow="pedestrian" oneway="1" width="2.00"/>
    <type id="highway.primary" priority="12" numLanes="2" speed="27.78" disallow="tram rail_urban rail rail_electric rail_fast ship" oneway="0"/>
    <type id="highway.primary_link" priority="7" numLanes="1" speed="22.22" disallow="tram rail_urban rail rail_electric rail_fast ship" oneway="0"/>
    <type id="highway.residential" priority="3" numLanes="1" speed="13.89" disallow="tram rail_urban rail rail_electric rail_fast ship" oneway="0"/>
    <type id="highway.secondary" priority="11" numLanes="1" speed="27.78" disallow="tram rail_urban rail rail_electric rail_fast ship" oneway="0"/>
    <type id="highway.service" priority="1" numLanes="1" speed="5.56" allow="pedestrian delivery bicycle" oneway="0"/>
    <type id="highway.steps" priority="1" numLanes="1" speed="1.39" allow="pedestrian" oneway="1" width="2.00"/>
    <type id="highway.tertiary" priority="10" numLanes="1" speed="22.22" disallow="tram rail_urban rail rail_electric rail_fast ship" oneway="0"/>
    <type id="highway.tertiary_link" priority="5" numLanes="1" speed="22.22" disallow="tram rail_urban rail rail_electric rail_fast ship" oneway="0"/>
    <type id="highway.trunk" priority="13" numLanes="2" speed="27.78" disallow="pedestrian bicycle tram rail_urban rail rail_electric rail_fast ship" oneway="0"/>
    <type id="highway.unclassified" priority="4" numLanes="1" speed="13.89" disallow="tram rail_urban rail rail_electric rail_fast ship" oneway="0"/>
    <type id="railway.highspeed" priority="21" numLanes="1" speed="69.44" allow="rail_fast" oneway="1"/>
    <type id="railway.rail" priority="20" numLanes="1" speed="44.44" allow="rail" oneway="1"/>
    <type id="railway.subway" priority="18" numLanes="1" speed="27.78" allow="rail_urban" oneway="1"/>

    <edge id=":10066680121_0" function="internal">
        <lane id=":10066680121_0_0" index="0" allow="rail_fast" speed="50.00" length="48.34" shape="10463.79,2956.81 10511.18,2947.23"/>
    </edge>
    <edge id=":10066680121_1" function="internal">
        <lane id=":10066680121_1_0" index="0" allow="rail_fast" speed="55.56" length="48.34" shape="10464.56,2960.02 10511.18,2947.23"/>
    </edge>
    <edge id=":10066680123_0" function="internal">
        <lane id=":10066680123_0_0" index="0" allow="rail rail_electric rail_fast" speed="44.44" length="3.00" shape="10955.49,2839.86 10958.42,2839.24"/>
    </edge>
    <edge id=":10066680123_1" function="internal">
        <lane id=":10066680123_1_0" index="0" allow="rail_fast" speed="50.00" length="3.00" shape="10955.50,2839.90 10958.42,2839.24"/>
    </edge>
    <edge id=":10066680125_0" function="internal">
        <lane id=":10066680125_0_0" index="0" allow="rail rail_electric rail_fast" speed="44.44" length="44.32" shape="10290.43,2995.58 10333.51,2985.18"/>
    </edge>
    <edge id=":10066680125_1" function="internal">
        <lane id=":10066680125_1_0" index="0" allow="rail rail_electric rail_fast" speed="44.44" length="45.41" shape="10290.27,2999.02 10333.51,2985.18"/>
    </edge>
    <edge id=":10066680126_0" function="internal">
        <lane id=":10066680126_0_0" index="0" allow="rail rail_electric rail_fast" speed="44.44" length="52.57" shape="10348.40,2981.64 10398.76,2966.58"/>
    </edge>
    <edge id=":10066680126_1" function="internal">
        <lane id=":10066680126_1_0" index="0" allow="rail rail_electric rail_fast" speed="44.44" length="54.15" shape="10348.40,2981.64 10401.13,2969.34"/>
    </edge>
    <edge id=":10066680127_0" function="internal">
        <lane id=":10066680127_0_0" index="0" allow="rail rail_electric rail_fast" speed="44.44" length="56.10" shape="10396.59,2963.80 10451.19,2950.91"/>
    </edge>
    <edge id=":10066680127_1" function="internal">
        <lane id=":10066680127_1_0" index="0" allow="rail rail_electric rail_fast" speed="44.44" length="54.52" shape="10398.95,2966.52 10451.19,2950.91"/>
    </edge>
    <edge id=":10066680129_0" function="internal">
        <lane id=":10066680129_0_0" index="0" allow="rail rail_electric rail_fast" speed="44.44" length="56.94" shape="9089.97,3277.67 9145.51,3265.13"/>
    </edge>
    <edge id=":10066680129_1" function="internal">
        <lane id=":10066680129_1_0" index="0" allow="rail rail_electric rail_fast" speed="44.44" length="51.57" shape="9089.97,3277.67 9140.84,3269.23"/>
    </edge>
    <edge id=":10066680131_0" function="internal">
        <lane id=":10066680131_0_0" index="0" allow="rail rail_electric rail_fast" speed="44.44" length="50.52" shape="9068.36,3267.05 9019.20,3278.67"/>
    </edge>
    <edge id=":10066680131_1" function="internal">
        <lane id=":10066680131_1_0" index="0" allow="rail rail_electric rail_fast" speed="44.44" length="50.52" shape="9067.50,3263.87 9019.20,3278.67"/>
    </edge>
    <edge id=":10066680132_0" function="internal">
        <lane id=":10066680132_0_0" index="0" allow="rail rail_electric rail_fast" speed="44.44" length="46.00" shape="9003.50,3282.27 8959.39,3295.30"/>
    </edge>
    <edge id=":10066680132_1" function="internal">
        <lane id=":10066680132_1_0" index="0" allow="rail rail_electric rail_fast" speed="44.44" length="57.62" shape="9003.50,3282.27 8947.41,3295.44"/>
    </edge>
    <edge id=":10066680135_0" function="internal">
        <lane id=":10066680135_0_0" index="0" allow="rail_fast" speed="50.00" length="51.57" shape="9121.80,3247.19 9072.51,3262.32"/>
    </edge>
    <edge id=":10066680135_1" function="internal">
        <lane id=":10066680135_1_0" index="0" allow="rail_fast" speed="55.56" length="51.57" shape="9121.80,3247.19 9071.64,3259.14"/>
    </edge>
    <edge id=":10066680136_0" function="internal">
        <lane id=":10066680136_0_0" index="0" allow="rail_fast" speed="50.00" length="50.76" shape="10582.44,2909.87 10532.32,2917.93"/>
    </edge>
    <edge id=":10066680136_1" function="internal">
        <lane id=":10066680136_1_0" index="0" allow="rail_fast" speed="55.56" length="50.77" shape="10581.82,2906.64 10532.32,2917.93"/>
    </edge>
    <edge id=":10066680139_0" function="internal">
        <lane id=":10066680139_0_0" index="0" allow="rail rail_electric rail_fast" speed="44.44" length="3.00" shape="8812.05,3338.26 8809.12,3338.94"/>
    </edge>
    <edge id=":10066680142_0" function="internal">
        <lane id=":10066680142_0_0" index="0" allow="rail rail_electric rail_fast" speed="44.44" length="39.86" shape="9141.04,3269.20 9180.34,3262.58"/>
    </edge>
    <edge id=":10066680142_1" function="internal">
        <lane id=":10066680142_1_0" index="0" allow="rail rail_electric rail_fast" speed="44.44" length="45.23" shape="9136.41,3273.32 9180.34,3262.58"/>
    </edge>
    <edge id=":10066680143_0" function="internal">
        <lane id=":10066680143_0_0" index="0" allow="rail rail_electric rail_fast" speed="44.44" length="2.98" shape="9073.64,3290.16 9076.51,3289.36"/>
    </edge>
    <edge id=":10066680143_1" function="internal">
        <lane id=":10066680143_1_0" index="0" allow="rail rail_electric rail_fast" speed="44.44" length="2.98" shape="9073.64,3290.16 9076.53,3289.42"/>
    </edge>
    <edge id=":10066680146_0" function="internal">
        <lane id=":10066680146_0_0" index="0" allow="rail rail_electric rail_fast" speed="44.44" length="53.57" shape="10223.93,3016.37 10275.97,3003.64"/>
    </edge>
    <edge id=":10066680146_1" function="internal">
        <lane id=":10066680146_1_0" index="0" allow="rail rail_electric rail_fast" speed="44.44" length="53.58" shape="10224.81,3019.55 10275.97,3003.64"/>
    </edge>
    <edge id=":10066680149_0" function="internal">
        <lane id=":10066680149_0_0" index="0" allow="rail rail_electric rail_fast" speed="44.44" length="56.31" shape="8614.35,3384.75 8559.55,3397.68"/>
    </edge>
    <edge id=":10066680149_1" function="internal">
        <lane id=":10066680149_1_0" index="0" allow="rail rail_electric rail_fast" speed="44.44" length="43.29" shape="8601.04,3385.32 8559.55,3397.68"/>
    </edge>
    <edge id=":10066680150_0" function="internal">
        <lane id=":10066680150_0_0" index="0" allow="rail rail_electric rail_fast" speed="44.44" length="43.99" shape="8643.39,3372.69 8601.23,3385.26"/>
    </edge>
    <edge id=":10066680150_1" function="internal">
        <lane id=":10066680150_1_0" index="0" allow="rail rail_electric rail_fast" speed="44.44" length="57.00" shape="8643.39,3372.69 8587.92,3385.83"/>
    </edge>
    <edge id=":10066680151_0" function="internal">
        <lane id=":10066680151_0_0" index="0" allow="rail_fast" speed="50.00" length="85.57" shape="8372.94,3446.80 8455.55,3424.50"/>
    </edge>
    <edge id=":10066680151_1" function="internal">
        <lane id=":10066680151_1_0" index="0" allow="rail_fast" speed="55.56" length="85.57" shape="8372.94,3446.80 8456.34,3427.66"/>
    </edge>
    <edge id=":10066680152_0" function="internal">
        <lane id=":10066680152_0_0" index="0" allow="rail rail_electric rail_fast" speed="44.44" length="3.01" shape="8523.74,3406.11 8520.82,3406.81"/>
    </edge>
    <edge id=":10916457031_0" function="internal">
        <lane id=":10916457031_0_0" index="0" allow="private emergency authority army vip passenger hov taxi bus coach delivery truck trailer motorcycle evehicle custom1 custom2" speed="27.78" length="0.10" shape="10299.93,372.67 10299.93,372.67"/>
        <lane id=":10916457031_0_1" index="1" allow="private emergency authority army vip passenger hov taxi bus coach delivery truck trailer motorcycle evehicle custom1 custom2" speed="27.78" length="0.10" shape="10296.78,373.21 10296.78,373.21"/>
        <lane id=":10916457031_0_2" index="2" allow="private emergency authority army vip passenger hov taxi bus coach delivery truck trailer motorcycle evehicle custom1 custom2" speed="27.78" length="0.10" shape="10293.62,373.76 10293.62,373.76"/>
    </edge>
    <edge id=":10916457033_0" function="internal">
        <lane id=":10916457033_0_0" index="0" allow="private emergency authority army vip passenger hov taxi bus coach delivery truck trailer motorcycle evehicle custom1 custom2" speed="27.78" length="0.30" shape="10276.54,230.48 10276.59,230.77"/>
        <lane id=":10916457033_0_1" index="1" allow="private emergency authority army vip passenger hov taxi bus coach delivery truck trailer motorcycle evehicle custom1 custom2" speed="27.78" length="0.30" shape="10273.39,231.03 10273.44,231.33"/>
        <lane id=":10916457033_0_2" index="2" allow="private emergency authority army vip passenger hov taxi bus coach delivery truck trailer motorcycle evehicle custom1 custom2" speed="27.78" length="0.30" shape="10270.24,231.59 10270.29,231.89"/>
        <lane id=":10916457033_0_3" index="3" allow="private emergency authority army vip passenger hov taxi bus coach delivery truck trailer motorcycle evehicle custom1 custom2" speed="27.78" length="0.30" shape="10267.09,232.15 10267.14,232.44"/>
    </edge>
    <edge id=":10916457035_0" function="internal">
        <lane id=":10916457035_0_0" index="0" allow="private emergency authority army vip passenger hov taxi bus coach delivery truck trailer motorcycle evehicle custom1 custom2" speed="27.78" length="8.21" shape="10401.92,979.50 10402.59,981.82 10403.41,983.30 10404.23,984.78 10404.90,987.10"/>
        <lane id=":10916457035_0_1" index="1" allow="private emergency authority army vip passenger hov taxi bus coach delivery truck trailer motorcycle evehicle custom1 custom2" speed="27.78" length="8.21" shape="10398.77,980.06 10399.44,982.38 10400.26,983.86 10401.08,985.34 10401.75,987.66"/>
        <lane id=":10916457035_0_2" index="2" allow="private emergency authority army vip passenger hov taxi bus coach delivery truck trailer motorcycle evehicle custom1 custom2" speed="27.78" length="8.21" shape="10395.62,980.62 10396.29,982.94 10397.11,984.42 10397.93,985.90 10398.60,988.22"/>
    </edge>
    <edge id=":10916457036_0" function="internal">
        <lane id=":10916457036_0_0" index="0" allow="private emergency authority army vip passenger hov taxi bus coach delivery truck trailer motorcycle evehicle custom1 custom2" speed="27.78" length="0.30" shape="10355.00,691.79 10355.05,692.08"/>
        <lane id=":10916457036_0_1" index="1" allow="private emergency authority army vip passenger hov taxi bus coach delivery truck trailer motorcycle evehicle custom1 custom2" speed="27.78" length="0.30" shape="10351.84,692.32 10351.89,692.61"/>
        <lane id=":10916457036_0_2" index="2" allow="private emergency authority army vip passenger hov taxi bus coach delivery truck trailer motorcycle evehicle custom1 custom2" speed="27.78" length="0.30" shape="10348.68,692.85 10348.73,693.14"/>
    </edge>
    <edge id=":10916457037_0" function="internal">
        <lane id=":10916457037_0_0" index="0" allow="private emergency authority army vip passenger hov taxi bus coach delivery truck trailer motorcycle evehicle custom1 custom2" speed="27.78" length="0.10" shape="10364.97,751.22 10364.97,751.22"/>
        <lane id=":10916457037_0_1" index="1" allow="private emergency authority army vip passenger hov taxi bus coach delivery truck trailer motorcycle evehicle custom1 custom2" speed="27.78" length="0.10" shape="10361.82,751.75 10361.82,751.75"/>
        <lane id=":10916457037_0_2" index="2" allow="private emergency authority army vip passenger hov taxi bus coach delivery truck trailer motorcycle evehicle custom1 custom2" speed="27.78" length="0.10" shape="10358.66,752.28 10358.66,752.28"/>
    </edge>
    <edge id=":10916457038_0" function="internal">
        <lane id=":10916457038_0_0" index="0" allow="private emergency authority army vip passenger hov taxi bus coach delivery truck trailer motorcycle evehicle custom1 custom2" speed="27.78" length="0.10" shape="10345.31,767.43 10345.31,767.43"/>
        <lane id=":10916457038_0_1" index="1" allow="private emergency authority army vip passenger hov taxi bus coach delivery truck trailer motorcycle evehicle custom1 custom2" speed="27.78" length="0.10" shape="10348.47,766.91 10348.47,766.91"/>
        <lane id=":10916457038_0_2" index="2" allow="private emergency authority army vip passenger hov taxi bus coach delivery truck trailer motorcycle evehicle custom1 custom2" speed="27.78" length="0.10" shape="10351.63,766.39 10351.63,766.39"/>
    </edge>
    <edge id=":10916457039_0" function="internal">
        <lane id=":10916457039_0_0" index="0" allow="private emergency authority army vip passenger hov taxi bus coach delivery truck trailer motorcycle evehicle custom1 custom2" speed="27.78" length="0.10" shape="10338.36,725.47 10338.36,725.47"/>
        <lane id=":10916457039_0_1" index="1" allow="private emergency authority army vip passenger hov taxi bus coach delivery truck trailer motorcycle evehicle custom1 custom2" speed="27.78" length="0.10" shape="10341.52,724.95 10341.52,724.95"/>
        <lane id=":10916457039_0_2" index="2" allow="private emergency authority army vip passenger hov taxi bus coach delivery truck trailer motorcycle evehicle custom1 custom2" speed="27.78" length="0.10" shape="10344.67,724.43 10344.67,724.43"/>
    </edge>
    <edge id=":10916457040_0" function="internal">
        <lane id=":10916457040_0_0" index="0" allow="private emergency authority army vip passenger hov taxi bus coach delivery truck trailer motorcycle evehicle custom1 custom2" speed="27.78" length="8.21" shape="10369.32,909.64 10368.67,907.32 10367.85,905.84 10367.04,904.35 10366.39,902.03"/>
        <lane id=":10916457040_0_1" index="1" allow="private emergency authority army vip passenger hov taxi bus coach delivery truck trailer motorcycle evehicle custom1 custom2" speed="27.78" length="8.21" shape="10369.32,909.64 10369.16,907.24 10369.43,905.57 10369.70,903.89 10369.55,901.49"/>
        <lane id=":10916457040_0_2" index="2" allow="private emergency authority army vip passenger hov taxi bus coach delivery truck trailer motorcycle evehicle custom1 custom2" speed="27.78" length="8.21" shape="10372.47,909.11 10372.31,906.70 10372.59,905.03 10372.86,903.36 10372.70,900.95"/>
        <lane id=":10916457040_0_3" index="3" allow="private emergency authority army vip passenger hov taxi bus coach delivery truck trailer motorcycle evehicle custom1 custom2" speed="27.78" length="8.21" shape="10375.62,908.57 10375.47,906.16 10375.74,904.49 10376.01,902.82 10375.85,900.41"/>
    </edge>
    <edge id=":10916457041_0" function="internal">
        <lane id=":10916457041_0_0" index="0" allow="private emergency authority army vip passenger hov taxi bus coach delivery truck trailer motorcycle evehicle custom1 custom2" speed="27.78" length="0.10" shape="10414.09,1038.83 10414.09,1038.83"/>
        <lane id=":10916457041_0_1" index="1" allow="private emergency authority army vip passenger hov taxi bus coach delivery truck trailer motorcycle evehicle custom1 custom2" speed="27.78" length="0.10" shape="10410.94,1039.39 10410.94,1039.39"/>
        <lane id=":10916457041_0_2" index="2" allow="private emergency authority army vip passenger hov taxi bus coach delivery truck trailer motorcycle evehicle custom1 custom2" speed="27.78" length="0.10" shape="10407.79,1039.95 10407.79,1039.95"/>
    </edge>
    <edge id=":10916457042_0" function="internal">
        <lane id=":10916457042_0_0" index="0" allow="private emergency authority army vip passenger hov taxi bus coach delivery truck trailer motorcycle evehicle custom1 custom2" speed="27.78" length="0.10" shape="10387.42,1013.07 10387.42,1013.07"/>
        <lane id=":10916457042_0_1" index="1" allow="private emergency authority army vip passenger hov taxi bus coach delivery truck trailer motorcycle evehicle custom1 custom2" speed="27.78" length="0.10" shape="10390.57,1012.51 10390.57,1012.51"/>
        <lane id=":10916457042_0_2" index="2" allow="private emergency authority army vip passenger hov taxi bus coach delivery truck trailer motorcycle evehicle custom1 custom2" speed="27.78" length="0.10" shape="10393.72,1011.94 10393.72,1011.94"/>
    </edge>
    <edge id=":11736549139_0" function="internal">
        <lane id=":11736549139_0_0" index="0" disallow="tram rail_urban rail rail_electric rail_fast ship" speed="13.89" length="5.00" shape="6371.46,945.69 6369.97,940.92"/>
    </edge>
    <edge id=":11736549139_1" function="internal">
        <lane id=":11736549139_1_0" index="0" disallow="tram rail_urban rail rail_electric rail_fast ship" speed="13.89" length="5.00" shape="6373.03,939.96 6374.52,944.74"/>
    </edge>
    <edge id=":11736549140_0" function="internal">
        <lane id=":11736549140_0_0" index="0" disallow="tram rail_urban rail rail_electric rail_fast ship" speed="13.89" length="5.11" shape="6507.06,1035.51 6502.51,1037.84"/>
    </edge>
    <edge id=":11736549140_1" function="internal">
        <lane id=":11736549140_1_0" index="0" disallow="tram rail_urban rail rail_electric rail_fast ship" speed="13.89" length="5.11" shape="6501.06,1034.99 6505.60,1032.67"/>
    </edge>
    <edge id=":11736549141_0" function="internal">
        <lane id=":11736549141_0_0" index="0" disallow="tram rail_urban rail rail_electric rail_fast ship" speed="13.89" length="5.39" shape="6578.33,999.07 6573.53,1001.52"/>
    </edge>
    <edge id=":11736549141_1" function="internal">
        <lane id=":11736549141_1_0" index="0" disallow="tram rail_urban rail rail_electric rail_fast ship" speed="13.89" length="5.39" shape="6572.08,998.67 6576.87,996.22"/>
    </edge>
    <edge id=":11736562064_0" function="internal">
        <lane id=":11736562064_0_0" index="0" disallow="tram rail_urban rail rail_electric rail_fast ship" speed="7.28" length="10.00" shape="7062.95,1711.97 7062.09,1709.69 7060.55,1708.07 7058.33,1707.12 7055.43,1706.85"/>
    </edge>
    <edge id=":11736562064_1" function="internal">
        <lane id=":11736562064_1_0" index="0" disallow="tram rail_urban rail rail_electric rail_fast ship" speed="22.22" length="14.50" shape="7062.95,1711.97 7060.14,1697.74"/>
    </edge>
    <edge id=":11736562064_2" function="internal">
        <lane id=":11736562064_2_0" index="0" disallow="tram rail_urban rail rail_electric rail_fast ship" speed="3.65" length="1.44" shape="7062.95,1711.97 7063.50,1710.64"/>
    </edge>
    <edge id=":11736562064_9" function="internal">
        <lane id=":11736562064_9_0" index="0" disallow="tram rail_urban rail rail_electric rail_fast ship" speed="3.65" length="3.23" shape="7063.50,1710.64 7064.21,1710.09 7065.07,1710.33 7066.09,1711.35"/>
    </edge>
    <edge id=":11736562064_3" function="internal">
        <lane id=":11736562064_3_0" index="0" disallow="tram rail_urban rail rail_electric rail_fast ship" speed="22.22" length="14.50" shape="7063.28,1697.12 7066.09,1711.35"/>
    </edge>
    <edge id=":11736562064_4" function="internal">
        <lane id=":11736562064_4_0" index="0" disallow="tram rail_urban rail rail_electric rail_fast ship" speed="7.72" length="4.20" shape="7063.28,1697.12 7063.50,1701.31"/>
    </edge>
    <edge id=":11736562064_5" function="internal">
        <lane id=":11736562064_5_0" index="0" disallow="tram rail_urban rail rail_electric rail_fast ship" speed="3.65" length="1.44" shape="7063.28,1697.12 7062.73,1698.46"/>
    </edge>
    <edge id=":11736562064_10" function="internal">
        <lane id=":11736562064_10_0" index="0" disallow="tram rail_urban rail rail_electric rail_fast ship" speed="7.72" length="10.72" shape="7063.50,1701.31 7062.26,1704.33 7059.57,1706.18 7055.43,1706.85"/>
    </edge>
    <edge id=":11736562064_11" function="internal">
        <lane id=":11736562064_11_0" index="0" disallow="tram rail_urban rail rail_electric rail_fast ship" speed="3.65" length="3.23" shape="7062.73,1698.46 7062.02,1699.00 7061.16,1698.77 7060.14,1697.74"/>
    </edge>
    <edge id=":11736562064_6" function="internal">
        <lane id=":11736562064_6_0" index="0" disallow="tram rail_urban rail rail_electric rail_fast ship" speed="6.16" length="9.05" shape="7055.37,1703.65 7057.89,1703.24 7059.52,1702.12 7060.27,1700.29 7060.14,1697.74"/>
    </edge>
    <edge id=":11736562064_7" function="internal">
        <lane id=":11736562064_7_0" index="0" disallow="tram rail_urban rail rail_electric rail_fast ship" speed="8.66" length="14.52" shape="7055.37,1703.65 7059.48,1704.07 7062.63,1705.49 7064.84,1707.92 7066.09,1711.35"/>
    </edge>
    <edge id=":11736562064_8" function="internal">
        <lane id=":11736562064_8_0" index="0" disallow="tram rail_urban rail rail_electric rail_fast ship" speed="3.65" length="4.67" shape="7055.37,1703.65 7056.59,1704.43 7057.00,1705.22 7056.62,1706.03 7055.43,1706.85"/>
    </edge>
    <edge id=":11736562065_0" function="internal">
        <lane id=":11736562065_0_0" index="0" disallow="tram rail_urban rail rail_electric rail_fast ship" speed="13.89" length="14.44" shape="6954.63,1714.17 6954.81,1710.52 6955.28,1706.98 6955.72,1703.45 6955.83,1699.80"/>
    </edge>
    <edge id=":11736562065_1" function="internal">
        <lane id=":11736562065_1_0" index="0" disallow="tram rail_urban rail rail_electric rail_fast ship" speed="8.00" length="14.18" shape="6954.63,1714.17 6955.12,1710.32 6956.72,1707.54 6959.44,1705.85 6963.28,1705.23"/>
    </edge>
    <edge id=":11736562065_2" function="internal">
        <lane id=":11736562065_2_0" index="0" disallow="tram rail_urban rail rail_electric rail_fast ship" speed="3.65" length="1.44" shape="6954.63,1714.17 6955.41,1712.96"/>
    </edge>
    <edge id=":11736562065_6" function="internal">
        <lane id=":11736562065_6_0" index="0" disallow="tram rail_urban rail rail_electric rail_fast ship" speed="3.65" length="3.23" shape="6955.41,1712.96 6956.20,1712.55 6957.01,1712.93 6957.83,1714.12"/>
    </edge>
    <edge id=":11736562065_3" function="internal">
        <lane id=":11736562065_3_0" index="0" disallow="tram rail_urban rail rail_electric rail_fast ship" speed="6.51" length="9.03" shape="6963.33,1708.43 6960.89,1708.82 6959.16,1709.90 6958.14,1711.67 6957.83,1714.12"/>
    </edge>
    <edge id=":11736562065_4" function="internal">
        <lane id=":11736562065_4_0" index="0" disallow="tram rail_urban rail rail_electric rail_fast ship" speed="7.73" length="2.30" shape="6963.33,1708.43 6961.06,1708.07"/>
    </edge>
    <edge id=":11736562065_5" function="internal">
        <lane id=":11736562065_5_0" index="0" disallow="tram rail_urban rail rail_electric rail_fast ship" speed="3.65" length="1.30" shape="6963.33,1708.43 6962.24,1707.73"/>
    </edge>
    <edge id=":11736562065_7" function="internal">
        <lane id=":11736562065_7_0" index="0" disallow="tram rail_urban rail rail_electric rail_fast ship" speed="7.73" length="10.64" shape="6961.06,1708.07 6960.18,1707.94 6957.88,1706.33 6956.43,1703.62 6955.83,1699.80"/>
    </edge>
    <edge id=":11736562065_8" function="internal">
        <lane id=":11736562065_8_0" index="0" disallow="tram rail_urban rail rail_electric rail_fast ship" speed="3.65" length="3.37" shape="6962.24,1707.73 6962.12,1707.65 6961.71,1706.86 6962.09,1706.05 6963.28,1705.23"/>
    </edge>
    <edge id=":11736562068_0" function="internal">
        <lane id=":11736562068_0_0" index="0" disallow="tram rail_urban rail rail_electric rail_fast ship" speed="13.89" length="0.33" shape="6850.90,1805.41 6850.81,1805.45 6850.75,1805.48 6850.70,1805.52 6850.62,1805.58"/>
    </edge>
    <edge id=":11736562068_1" function="internal">
        <lane id=":11736562068_1_0" index="0" disallow="tram rail_urban rail rail_electric rail_fast ship" speed="13.89" length="0.98" shape="6848.75,1802.98 6848.99,1802.81 6849.16,1802.70 6849.33,1802.61 6849.60,1802.49"/>
    </edge>
    <edge id=":11736569671_0" function="internal">
        <lane id=":11736569671_0_0" index="0" disallow="tram rail_urban rail rail_electric rail_fast ship" speed="3.65" length="4.67" shape="6814.16,1846.56 6812.99,1845.72 6812.62,1844.91 6813.05,1844.12 6814.28,1843.36"/>
    </edge>
    <edge id=":11736569673_0" function="internal">
        <lane id=":11736569673_0_0" index="0" disallow="tram rail_urban rail rail_electric rail_fast ship" speed="5.82" length="9.14" shape="6931.56,1443.51 6930.98,1440.90 6929.75,1439.46 6927.87,1439.18 6925.35,1440.08"/>
    </edge>
    <edge id=":11736569673_1" function="internal">
        <lane id=":11736569673_1_0" index="0" disallow="tram rail_urban rail rail_electric rail_fast ship" speed="8.87" length="12.32" shape="6931.56,1443.51 6931.42,1439.10 6931.78,1435.70 6932.66,1433.32 6934.06,1431.95"/>
    </edge>
    <edge id=":11736569673_2" function="internal">
        <lane id=":11736569673_2_0" index="0" disallow="tram rail_urban rail rail_electric rail_fast ship" speed="13.89" length="11.47" shape="6935.53,1434.79 6925.35,1440.08"/>
    </edge>
    <edge id=":11736569673_3" function="internal">
        <lane id=":11736569673_3_0" index="0" disallow="tram rail_urban rail rail_electric rail_fast ship" speed="3.65" length="1.44" shape="6935.53,1434.79 6934.10,1434.64"/>
    </edge>
    <edge id=":11736569673_6" function="internal">
        <lane id=":11736569673_6_0" index="0" disallow="tram rail_urban rail rail_electric rail_fast ship" speed="3.65" length="3.23" shape="6934.10,1434.64 6933.38,1434.11 6933.36,1433.22 6934.06,1431.95"/>
    </edge>
    <edge id=":11736569673_4" function="internal">
        <lane id=":11736569673_4_0" index="0" disallow="tram rail_urban rail rail_electric rail_fast ship" speed="13.89" length="11.47" shape="6923.88,1437.24 6934.06,1431.95"/>
    </edge>
    <edge id=":11736569673_5" function="internal">
        <lane id=":11736569673_5_0" index="0" disallow="tram rail_urban rail rail_electric rail_fast ship" speed="3.65" length="1.44" shape="6923.88,1437.24 6925.31,1437.39"/>
    </edge>
    <edge id=":11736569673_7" function="internal">
        <lane id=":11736569673_7_0" index="0" disallow="tram rail_urban rail rail_electric rail_fast ship" speed="3.65" length="3.23" shape="6925.31,1437.39 6926.04,1437.92 6926.05,1438.81 6925.35,1440.08"/>
    </edge>
    <edge id=":11736569674_0" function="internal">