<?xml version="1.0" encoding="UTF-8"?>

<!-- generated on 2024-05-29 23:08:03 by Eclipse SUMO duarouter Version 1.19.0
<configuration xmlns:xsi="http://www.w3.org/2001/XMLSchema-instance" xsi:noNamespaceSchemaLocation="http://sumo.dlr.de/xsd/duarouterConfiguration.xsd">

    <input>
        <net-file value="sumodata\map.net.xml"/>
        <route-files value="sumodata/trips.trips.xml"/>
    </input>

    <output>
        <output-file value="sumodata\map.rou.xml"/>
    </output>

    <time>
        <begin value="0"/>
        <end value="1000.0"/>
    </time>

    <report>
        <no-warnings value="true"/>
        <ignore-errors value="true"/>
        <no-step-log value="true"/>
    </report>

</configuration>
-->

<routes xmlns:xsi="http://www.w3.org/2001/XMLSchema-instance" xsi:noNamespaceSchemaLocation="http://sumo.dlr.de/xsd/routes_file.xsd">
    <vehicle id="0" depart="0.00">
        <route edges="424120531 424120532 132227042 132227041 424217539#0 424217539#1 424217539#2 424143551#0 424143551#1 690481872 108718522 108718493 108718553 108718517#0 108718517#1 108718523 108718527#0 322110434#1 338789908"/>
    </vehicle>
    <vehicle id="2" depart="2.00">
        <route edges="-723673548#1 -723673550#1 -723673545#0 -342007703 -342007722#1 -164316027#0 -164316059 -168457273#2 -168457273#1 108718520#1 108718528 108718509#0 108718509#1 108718486 424143553#0 424143553#1 102780957#0 102780957#1 -424217539#2 1263190668#0 1263190668#1 1263190668#2 1263190670 1263190669 -1263190669 -1263190670"/>
    </vehicle>
    <vehicle id="4" depart="4.00">
        <route edges="102780939#5 102781008 132230478#0 163400216#0 163400216#1 102780945#2 102780945#3 690481869#1 102781001 102780972#0 102780972#1 102780957#0 102780957#1 102780913#0 102780913#1 1270942546 102781022 102780927#0 102780927#1 102780927#2 102782763 102782751#0 1270942547 1270942545#3"/>
    </vehicle>
    <vehicle id="5" depart="5.00">
        <route edges="338782481 338782497#0 338782497#1 1270942545#2 1270942545#3 69866428#2 102782749 102782759 1270942548 914304999#0 914304999#1 914304999#2 424143551#0 424143551#1 102781029 102780910 102780890 1270942550 163400247#0 163400247#1 163400247#2 163400247#3 102780883 102780881#0 102780881#1 -405315149"/>
    </vehicle>
    <vehicle id="7" depart="7.00">
        <route edges="1047794593#0 1047794593#1 1047794595 1047794594#0 -1047794591#0 844707914 424120571#0 424120571#1 424120574#0"/>
    </vehicle>
    <vehicle id="8" depart="8.00">
        <route edges="108718550#2 108718491 108718520#0 108718520#1 108718528 108718509#0 108718509#1 108718486 424143553#0 424143553#1 108718482#0 -132228614 -132228617#2 -132228617#1 -132228617#0 -132228615 -132228618#3 171746290 171746292 171746289 171746288 171746291#0 -171746291#0 -171746288 -171746289"/>
    </vehicle>
    <vehicle id="9" depart="9.00">
        <route edges="1270942547 1270942545#3 69866428#2 102782749 102782759 1270942548 914304999#0 914304999#1 914304999#2 424143551#0 424143551#1 102781029 102780910 102780890 1270942550 165524642#0 165524642#1 165524642#2 102780902 102780889#0 102780889#1 102780889#2"/>
    </vehicle>
    <vehicle id="10" depart="10.00">
        <route edges="-338782495#2 -338782496#0 338782498#1 338782481 338782497#0 338782497#1 1270942545#2 1270942545#3 69866428#2 102782749 102782759 1270942548 914304999#0 914304999#1 914304999#2 424143551#0 424143551#1 102781029 102780910 102780890 1270942550 165524642#0 165524642#1 165524642#2 102780902 102780889#0 102780889#1 102780889#2 102780889#3 1270942551 1270942553#0 1270942553#1"/>
    </vehicle>
    <vehicle id="12" depart="12.00">
        <route edges="1270942545#1 -338782497#1 -338782497#0 -338782481 -338782498#1 338782496#0 -338782495#1 338782478#1 338782491 -342007661#3 -342007661#1 1047794605 1047794606 342007725"/>
    </vehicle>
    <vehicle id="14" depart="14.00">
        <route edges="132311976#1 132310378 132310375 132310374 -132230491#2 -132230491#1 -132230491#0 -132230752 -171537754 690481869#1 102781001 102780972#0 102780972#1 690481872 108718522 108718493 108718553 108718517#0 168457273#1 168457273#2 164316059 164316027#0"/>
    </vehicle>
    <vehicle id="15" depart="15.00">
        <route edges="-723673545#0 -342007703 -342007722#1 -164316027#0 -164316059 -168457273#2 -168457273#1 108718520#1 108718528 108718509#0 108718509#1"/>
    </vehicle>
    <vehicle id="17" depart="17.00">
        <route edges="1047794604 1047794603 -1047794603 -1047794604 -342007662#3 -342007662#2 -342007662#1 -164316049#0 -164316013 -164316052 -164316018 -164316027#3 -164316027#2 -164316027#1 -164316027#0 -164316059 -168457273#2 -168457273#1 108718517#1 108718523 108718527#0 322110434#1 338789908 338789914#0 338789914#1 338789907 338789902#0 338789902#1 342007661#3 -338782491 -338782478#1 338782495#1 338782495#2"/>
    </vehicle>
    <vehicle id="20" depart="20.00">
        <route edges="-171976176#0 -171976173 -171976177 132232254 132310372 132310373 690481864 132310377 132310376#0 132310376#1 171537756 171537758#0 171537758#1 121047580 121047541 121047577 121047593 121047547 121047561 121047537 121047588 121047598 1174824073 1174824072 40968803 40968802"/>
    </vehicle>
    <vehicle id="21" depart="21.00">
        <route edges="338782497#1 1270942545#2 1270942545#3 69866428#2 102782749 102782759 1270942548 914304999#0 914304999#1 914304999#2 424143551#0 424143551#1 102780957#0 102780957#1"/>
    </vehicle>
    <vehicle id="22" depart="22.00">
        <route edges="342007719#1 -342007719#1 -342007719#0 342007668#6 1047794602 1047794601 102780939#3 -723673549#2 -723673549#1 102780889#1 102780889#2 168475975#2"/>
    </vehicle>
    <vehicle id="23" depart="23.00">
        <route edges="132235396#0 132235396#1 132235396#2 132235396#3 132235396#5 -132235396#5 -132235396#3 -132235396#2 -132235396#1 -132235396#0 -132227026#1 -132227026#0 -424217546#2 -424217546#1 -424217546#0 132232254 132310372 132310373 690481864 132310377 132310376#0 132310376#1 171537756 171537758#0 171537758#1 132233522#2 168475971 168475975#0 102780881#4 1270942551 1270942553#0 1270942553#1 405322249 405322253 405322259#0 -405322259#0 -405322253"/>
    </vehicle>
    <vehicle id="24" depart="24.00">
        <route edges="168463263 168463269#0 168463269#1 168463262 168463277#0 69866428#2 102782749 102782759 1270942548 914304999#0 914304999#1 914304999#2 424143551#0 424143551#1 102781029 102780910 102780890 171537754 132230752 132230491#0 132230491#1 132230491#2 -132230491#2 -132230491#1 -132230491#0 -132230752"/>
    </vehicle>
    <vehicle id="25" depart="25.00">
        <route edges="790660025 790660024 -790660024 -790660025 -723673545#5 -723673545#4 -723673545#3 -723673545#1 -723673545#0 -342007703 -342007722#1 -164316027#0 -164316059 -168457273#2 -168457273#1 108718517#1 108718523 108718527#0 108718527#2 108718557 108718513#0 -342007720#0 -342007693 -342007705#1"/>
    </vehicle>
    <vehicle id="26" depart="26.00">
        <route edges="-171976174 -171976176#1 171976328#0 171976328#1 171976328#2 171976329 171976330 163400247#1 163400219#0 163400219#1 165524642#2 102780902 102780889#0 723673549#1 723673549#2 -790660024 -790660025 -723673545#5 -723673545#4 -723673545#3 -723673545#1 -723673545#0 -342007703 -342007722#1 164316027#1 164316027#2 164316027#3 164316018"/>
    </vehicle>
    <vehicle id="27" depart="27.00">
        <route edges="-342007725 -1047794606 -1047794605 342007661#1 342007661#3 -338782491 -338782478#1 338782495#1 -338782496#0 338782498#1 338782481 338782497#0 338782497#1 1270942545#2 1270942545#3 69866428#2 102782749 102782759 1270942548 914304999#0 914304999#1 914304999#2 102780913#0 102780913#1"/>
    </vehicle>
    <vehicle id="28" depart="28.00">
        <route edges="-163411771#4 -163411771#3 -163411771#2 -132235396#5 -132235396#3 -132235396#2 -132235396#1 -132235396#0 132227026#2 132227026#3 132227026#4 132227026#5 424217540 424120531 424120532 132227042 132227041 424217539#0 424217539#1 424217539#2 102780913#0 102780913#1 1270942545#0 1270942545#1 -338782497#1 -338782497#0 -338782481 -338782498#1 338782496#0 338782496#1"/>
    </vehicle>
    <vehicle id="29" depart="29.00">
        <route edges="723673551 401505287#1 690481869#1 102781001 102780972#0 102780972#1 102781029 102780910 102780890 1270942550 165524642#0 165524642#1"/>
    </vehicle>
    <vehicle id="30" depart="30.00">
        <route edges="-132235396#1 -132235396#0 132227026#2 132227026#3 132227026#4 132227026#5 424217534 108718488 424217536#0 424217536#1 132228607 132228620 132228618#0 132228618#1 132228618#2"/>
    </vehicle>
    <vehicle id="31" depart="31.00">
        <route edges="132227026#1 132227026#2 132227026#3 132227026#4 132227026#5 108718546 108718516 424143555#0 424143555#1 690481872 108718522 108718493 108718553 108718517#0 168457273#1 168457273#2 164316059 164316027#0 164316027#1 723673546"/>
    </vehicle>
    <vehicle id="33" depart="33.00">
        <route edges="342007662#2 -342007719#2 -342007719#1 -342007719#0 342007668#6 1047794602 1047794601 102780939#3 -723673549#2 -723673549#1 102780889#1 171537760#1 102780881#3 168475975#1"/>
    </vehicle>
    <vehicle id="34" depart="34.00">
        <route edges="413977263#2 338789909 338789915#0 338789915#1 338789915#2 338789915#3 338789904 338789901 108718550#2 108718491 108718520#0 168457273#1 168457273#2 164316059 164316027#0 342007722#1 342007703 723673545#0 723673545#1 723673545#3 723673545#4 723673545#5 790660025 790660024 -723673549#2 102781038#3"/>
    </vehicle>
    <vehicle id="35" depart="35.00">
        <route edges="132236098#0 132236098#1 132236098#2 -132236098#2 -132236098#1 -132236098#0 -132236099 -163411771#4 -163411771#3 -163411771#2 -132235396#5 -132235396#3 -132235396#2 -132235396#1 -132235396#0 -132227026#1 -132227026#0 -424217546#2 -424217546#1 -424217546#0 132232254 132310372 132310373 690481864 132310377 132310376#0 132310376#1 171537756 171537758#0 171537758#1 132233522#2 168475971 168475975#0 102780881#4 1270942551 1270942553#0 405322254 405322250 849777394 -849777395#2 -849777395#1"/>
    </vehicle>
    <vehicle id="36" depart="36.00">
        <route edges="790660016 790660015 342007668#2 -342007668#2"/>
    </vehicle>
    <vehicle id="37" depart="37.00">
        <route edges="121047581 121047567 121047551 121047566 132233522#2 168475971 168475975#0 168475975#1 168475975#2 102781038#1 102781038#2 723673549#2 -790660024 -790660025 -723673545#5 -723673545#4 -723673545#3 -723673545#1 -723673545#0 -342007703 -342007722#1 -164316027#0 -164316059 -168457273#2 -168457273#1 108718517#1 108718523 108718527#0 108718527#2 108718557 108718513#0 342007720#2 342007688"/>
    </vehicle>
    <vehicle id="39" depart="39.00">
        <route edges="168463262 168463277#0 69866428#2 102782749 102782759 1270942548 914304999#0 914304999#1 914304999#2 -424217539#2 -424217539#1 -424217539#0 -132227041 -132227042 -424120532 -424120531 -424217540 424217540"/>
    </vehicle>
    <vehicle id="41" depart="41.00">
        <route edges="-405315156 -405315168#4 171537755#1 171537755#2 132310379 690481862 132310378 132310375 132310374"/>
    </vehicle>
    <vehicle id="43" depart="43.00">
        <route edges="790659956 342007662#0 -164316049#0 -164316013 -164316052 -164316018 -164316027#3 -164316027#2 -164316027#1 -164316027#0 -164316059 -168457273#2 -168457273#1 108718517#1 108718523 108718527#0 322110434#1 338789908 338789914#0 338789914#1 338789907 338789902#0 338789902#1 413977263#1"/>
    </vehicle>
    <vehicle id="44" depart="44.00">
        <route edges="132228618#0 132228618#1 -132228618#1 -132228618#0 -132228620 -132228607 108718533#0 108718533#1 108718533#2 108718533#3 108718538 424217535 -132227026#5 -132227026#4 -132227026#3 -132227026#2 -132227026#1 -132227026#0 -424217546#2 -424217546#1 -424217546#0 132232254 132310372 132310373 690481864"/>
    </vehicle>
    <vehicle id="45" depart="45.00">
        <route edges="1263190668#1 -1263190668#1 -1263190668#0 424217539#2 424143551#0 424143551#1 690481872 108718522 108718493 108718553 108718517#0 168457273#1 168457273#2 164316059 164316027#0 164316027#1 164316027#2 164316027#3 164316018 164316052 164316013 164316049#0"/>
    </vehicle>
    <vehicle id="46" depart="46.00">
        <route edges="-342007661#1 342007661#1 342007661#3 -338782491 -338782478#1 338782495#1 -338782496#0 338782498#1 338782481 338782497#0 338782497#1 1270942545#2 1270942545#3 69866428#2 102782749 102782759 1270942548 914304999#0 914304999#1 914304999#2 -424217539#2 1263190668#0 1263190668#1 1263190668#2 1263190670"/>
    </vehicle>
    <vehicle id="47" depart="47.00">
        <route edges="-338782497#0 -338782481 -338782498#1 338782498#1 338782481 338782497#0 338782497#1 1270942545#2 1270942545#3 69866428#2 102782749 102782759 1270942548 914304999#0 914304999#1 914304999#2 424143551#0 424143551#1 102781029 102780910 102780890 1270942550 165524642#0 165524642#1 165524642#2 102780902 102780889#0 102780889#1 171537760#1 171537760#2 168475968 168475972#0 121047580 121047541 121047577 121047593 121047547 121047561 121047537 121047588 121047598 1174824073 1174824072 40968803 40968802 121047629 121047646 32758727 32758728"/>
    </vehicle>
    <vehicle id="48" depart="48.00">
        <route edges="108718482#0 108718482#1 108718497 70266615 424217534 108718488 424217536#0 424217536#1 132228607 132228620 132228618#0 132228618#1 171745050#0 171745050#1 171745050#2 -171745050#2 -171745050#1"/>
    </vehicle>
    <vehicle id="49" depart="49.00">
        <route edges="163400222#1 163400247#3 102780883 102780881#0 102780881#1 723673549#0 102780889#1 102780889#2 102780889#3 1270942551 1270942553#0 405322254 405322250 849777394 -849777395#2"/>
    </vehicle>
    <vehicle id="50" depart="50.00">
        <route edges="-424120532 -424120531 -424217540 424217534 108718488 424217536#0 424217536#1 132228607 132228620 132228618#0 132228618#1 132228618#2"/>
    </vehicle>
    <vehicle id="51" depart="51.00">
        <route edges="132310379 690481862 132310378 132310375 132310374 171976177 171976173 171976176#0 171976328#0"/>
    </vehicle>
    <vehicle id="52" depart="52.00">
        <route edges="413977263#1 338789902#1 342007661#3 -338782491 -338782478#1 338782495#1 -338782496#0 338782498#1 338782481 338782497#0 338782497#1 -338782497#1"/>
    </vehicle>
    <vehicle id="54" depart="54.00">
        <route edges="338789907 338789902#0 413977263#2 338789909 338789915#0 338789915#1 338789915#2 338789915#3 338789904 338789901 108718550#2 108718491 108718520#0 168457273#1 168457273#2 164316059 164316027#0 164316027#1 164316027#2 164316027#3 164316018 164316052 164316013 164316049#0 -164316049#0 -164316013 -164316052"/>
    </vehicle>
    <vehicle id="55" depart="55.00">
        <route edges="164316025 164316019#0 342007722#0 342007722#1 342007703 723673545#0 723673545#1 723673545#3 723673545#4 723673545#5 790660025 790660024 -723673549#2 -723673549#1 -723673549#0 -405315149 -405315156 -405315168#4 171537755#1 -171976854 -171976175"/>
    </vehicle>
    <vehicle id="56" depart="56.00">
        <route edges="790659960#0 164316029#1 164316029#2 164316025 164316019#0 164316019#1 164316003 164316075#0 164316075#1 108718550#2 108718491 108718520#0 108718520#1 108718528 108718509#0 108718509#1 108718486 424143553#0 424143553#1 108718482#0 108718482#1 108718497"/>
    </vehicle>
    <vehicle id="57" depart="57.00">
        <route edges="-342007705#0 -342007697 -1047794580#1 342007717#1 413977263#2 338789909 338789915#0 338789915#1 338789915#2 338789915#3 338789904 338789901 108718550#2 108718491"/>
    </vehicle>
    <vehicle id="60" depart="60.00">
        <route edges="-164316003 -164316019#1 342007722#0 164316027#1 164316027#2 164316027#3 164316018 164316052 164316013 164316049#0 342007662#1 342007662#2 -342007719#2"/>
    </vehicle>
    <vehicle id="61" depart="61.00">
        <route edges="102780957#1 424143551#0 424143551#1 690481872 108718522 108718493 108718553 108718517#0 108718517#1 108718523 108718527#0 322110434#1 338789908 338789914#0 338789914#1 338789907 338789902#0 -342007717#1 -342007717#0"/>
    </vehicle>
    <vehicle id="62" depart="62.00">
        <route edges="132228617#2 -132227041 -132227042 -424120532 -424120531 -424217540 424217534 108718488 424217536#0 -168413564#3 -168413564#2 -168413564#1 -168413564#0"/>
    </vehicle>
    <vehicle id="63" depart="63.00">
        <route edges="102780939#0 102780939#1 102780939#2 102780939#3 102780939#4 102780939#5 102781008 132230478#0 132230478#1 132230478#2 132230478#3 1270942550 165524642#0 165524642#1 165524642#2 102780902"/>
    </vehicle>
    <vehicle id="65" depart="65.00">
        <route edges="132235396#2 132235396#3 132235396#5 -132235396#5 -132235396#3 -132235396#2 -132235396#1 -132235396#0 132227026#2 132227026#3 132227026#4 132227026#5 424217540 424120531 424120532 132227042 132227041 -132227041 -132227042"/>
    </vehicle>
    <vehicle id="67" depart="67.00">
        <route edges="171976854 -171976854 -405315144#0 102780881#1 723673549#0 723673549#1 723673549#2 -790660024 -790660025 -723673545#5 -723673545#4 -723673545#3 723673544#1 723673544#2 790660023 1052598230#0 1052598230#1 -342007674 -342007677 -342007690 342007690"/>
    </vehicle>
    <vehicle id="69" depart="69.00">
        <route edges="108718553 108718517#0 108718520#1 108718528 108718509#0 108718509#1 108718486 424143553#0 424143553#1 102780957#0 102780957#1 102780913#0 102780913#1 1270942546 102781022 102780927#0 102780927#1 102780927#2 102782763 102782751#0 1270942547 1270942545#3 69866428#2 102782749 102782759 1270942548 102782753 914304997 102780896 424143552"/>
    </vehicle>
    <vehicle id="70" depart="70.00">
        <route edges="164316027#1 164316027#2 164316027#3 164316018 164316052 164316013 164316049#0 342007662#1 342007690 342007677"/>
    </vehicle>
    <vehicle id="71" depart="71.00">
        <route edges="108718513#0 108718537#1 108718490 108718550#0 108718550#2 108718491 108718520#0 108718520#1 108718528 108718509#0 108718509#1 108718486 424143553#0 424143553#1 690481872 108718522 108718493"/>
    </vehicle>
    <vehicle id="72" depart="72.00">
        <route edges="723673550#1 -723673550#1 723673545#1 723673545#3 723673545#4 723673545#5 790660025 790660024 -723673549#2 -723673549#1 102780889#1 102780889#2 102780889#3 1270942551 1270942553#0 405322254 405322250 849777394 -849777395#2 -849777395#1 849777395#1"/>
    </vehicle>
    <vehicle id="74" depart="74.00">
        <route edges="168463274#0 163748514#1 168463263 168463269#0 168463269#1 168463262 168463277#0 69866428#2 102782749 102782759 1270942548 914304999#0 914304999#1 914304999#2 424143551#0 424143551#1 102781029 102780910 102780890 171537754 132230752 132230491#0 132230491#1 132230491#2 132232254 132310372 132310373 132310378 132310375"/>
    </vehicle>
    <vehicle id="75" depart="75.00">
        <route edges="723673548#0 -723673550#1 723673545#1 723673545#3 723673545#4 723673545#5 790660025 790660024 -723673549#2 -723673549#1 102780889#1 102780889#2 168475975#2 102781038#1 102781038#2"/>
    </vehicle>
    <vehicle id="76" depart="76.00">
        <route edges="-342007719#1 -342007719#0 342007668#6 1047794602 1047794601 102780939#3 102780939#4 102780939#5 102781008 132230478#0 132230478#1 132230478#2 132230478#3 171537754 132230752 132230491#0 132230491#1 132230491#2 424217546#0 424217546#1 424217546#2 132227026#0 132227026#1 132235396#0 132235396#1 132235396#2 132235396#3 132235396#5 163411771#2 163411771#3"/>
    </vehicle>
    <vehicle id="77" depart="77.00">
        <route edges="1052598228 -1052598228 -342007723#0 -342007668#4 790660028#1 790660020 790660019#0 790660019#1 -723673545#3 -723673545#1 -723673545#0 -342007703 -342007722#1 164316027#1 164316027#2"/>
    </vehicle>
    <vehicle id="80" depart="80.00">
        <route edges="424143551#0 424143551#1 102780957#0 102780957#1 -424217539#2 1263190668#0 1263190668#1 1263190668#2 1263190670 1263190669 -1263190669 -1263190670"/>
    </vehicle>
    <vehicle id="81" depart="81.00">
        <route edges="-164316042#0 -164316007 -164316049#1 -164316049#0 -164316013 -164316052 -164316018 -164316027#3 -164316027#2 723673546"/>
    </vehicle>
    <vehicle id="82" depart="82.00">
        <route edges="405315168#1 405315168#2 405315168#4 405315156 405315149 723673549#0 723673549#1 723673549#2 -790660024 -790660025 -723673545#5 -723673545#4 -723673545#3 -723673545#1 -723673545#0 -342007703 -342007722#1 -164316027#0 -164316059 -168457273#2 -168457273#1 108718517#1 108718523 108718527#0 322110434#1 338789908"/>
    </vehicle>
    <vehicle id="83" depart="83.00">
        <route edges="1052598230#2 1064300948 1052598231 1052598232#0 723673545#3 723673545#4 723673545#5 790660025 790660024 102780939#4 102780939#5 102781008 132230478#0 163400216#0 163400216#1 102780945#2 102780945#3 690481869#1 102781001 102780972#0 102780972#1 108718482#0 -132228614 -132228617#2 -132228617#1 132228617#1"/>
    </vehicle>
    <vehicle id="84" depart="84.00">
        <route edges="132230478#1 132230478#2 132230478#3 171537754"/>
    </vehicle>
    <vehicle id="85" depart="85.00">
        <route edges="164316027#1 164316027#2 164316027#3 164316018 164316052 164316013 164316049#0 342007662#1 342007662#2 342007662#3"/>
    </vehicle>
    <vehicle id="87" depart="87.00">
        <route edges="405315168#0 405315168#1 405315168#2 171537755#1 171537755#2 132310379 690481862 132310378 132310375 132310374 424217546#0 424217546#1 424217546#2 132227026#0 132227026#1 132227026#2 132227026#3 132227026#4 132227026#5 424217534 108718488 424217536#0 424217536#1 132228607 132228620 132228618#0 132228618#1 132228618#2 171746290 171746292 171746289 171746288 171746291#0 -171746291#0 -171746288 -171746289 -171746292 -171746290"/>
    </vehicle>
    <vehicle id="88" depart="88.00">
        <route edges="132233522#2 168475971 168475975#0 168475975#1 168475975#2 102781038#1 171537760#0 171537760#1 171537760#2 168475968 168475972#0 132233525#1 171537757 171537755#0 171537755#1 171537755#2 132310379 690481862 132310378 132310375 132310374 424217546#0 424217546#1 424217546#2 132227026#0 132227026#1 132227026#2 132227026#3"/>
    </vehicle>
    <vehicle id="89" depart="89.00">
        <route edges="108718538 424217535 108718546 108718516 424143555#0 424143555#1 102781029 102780910 102780890 1270942550 165524642#0 165524642#1 165524642#2 102780902 102780889#0 723673549#1 723673549#2 -790660024 -790660025 -723673545#5 723673545#5 790660025 790660024"/>
    </vehicle>
    <vehicle id="93" depart="93.00">
        <route edges="-132227026#0 -424217546#2 -424217546#1 -424217546#0 132232254 132310372 132310373 690481864 132310377 132310376#0 132310376#1 171537756 171537758#0 171537758#1 -132233528#2 -132233528#1 -132233528#0"/>
    </vehicle>
    <vehicle id="95" depart="95.00">
        <route edges="-132236098#0 -132236099 -163411771#4 -163411771#3 -163411771#2 -132235396#5 -132235396#3 -132235396#2 -132235396#1 -132235396#0 132227026#2 132227026#3 132227026#4 132227026#5 108718546 108718516 424143555#0 424143555#1 690481872 108718522 108718493 108718553 108718517#0 168457273#1 168457273#2 164316059 164316027#0 -164316027#0 -164316059"/>
    </vehicle>
    <vehicle id="96" depart="96.00">
        <route edges="338782498#0 338782498#1 338782481 338782497#0 338782497#1 1270942545#2"/>
    </vehicle>
    <vehicle id="99" depart="99.00">
        <route edges="790660016 790660015 342007668#2 342007668#3 342007668#4 -342007668#4"/>
    </vehicle>
    <vehicle id="101" depart="101.00">
        <route edges="338782478#1 338782491 -342007661#3 413977263#1 413977263#2 338789909 338789915#0 338789915#1 338789915#2 338789915#3 338789904 338789901 -164316075#1 -164316075#0 -164316003 -164316019#1 -164316019#0 -164316025 -164316029#2 484454007 -484454006#2 -484454006#1 -484454006#0 790659960#0"/>
    </vehicle>
    <vehicle id="102" depart="102.00">
        <route edges="108718523 108718527#0 108718550#2 108718491 108718520#0 108718520#1 108718528 108718509#0 108718509#1 108718486 424143553#0 424143553#1 108718482#0 -132228614 -132228617#2 -132228617#1 -132228617#0 -132228615 -132228618#3 171746290"/>
    </vehicle>
    <vehicle id="105" depart="105.00">
        <route edges="163400222#1 163400247#3 102780883 102780881#0 102780881#1 102780881#2 171537760#2 168475968 168475972#0 121047580 121047541 121047577 121047593 121047547 121047561 121047537 121047588 121047598"/>
    </vehicle>
    <vehicle id="106" depart="106.00">
        <route edges="-342007662#0 -790659956 -790659957 164316042#1 164316041 164316029#0 164316029#1 164316029#2 164316025 164316019#0 164316019#1 164316003 164316075#0 -342007663#1 342007663#1"/>
    </vehicle>
    <vehicle id="107" depart="107.00">
        <route edges="121047633 121047659 40968806 1174824082 1174824081 1174824077 121047597 121047596 121047538 121047581 121047567 121047551 121047566 132233522#2 168475971 168475975#0 102780881#4 1270942551 1270942553#0 405322254 405322250 849777394 -849777395#2"/>
    </vehicle>
    <vehicle id="108" depart="108.00">
        <route edges="-171976329 -171976328#2 -171976328#1 -171976328#0 171976176#1 171976174 171976175 171976720#1"/>
    </vehicle>
    <vehicle id="109" depart="109.00">
        <route edges="405315168#1 405315168#2 171537755#1 171537755#2 132310379 690481862 132310378 132310375 132310374 424217546#0 424217546#1 424217546#2 132227026#0 132227026#1 132235396#0 132235396#1 132235396#2 132235396#3 132235396#5 -163411771#1 -163411771#0 163411771#0 163411771#1"/>
    </vehicle>
    <vehicle id="110" depart="110.00">
        <route edges="-342007726#1 338789915#2 338789915#3 338789904 338789901 108718550#2 108718491 108718520#0 168457273#1 168457273#2 164316059 164316027#0 342007722#1 342007703 723673545#0 723673545#1 723673545#3 723673545#4 723673545#5 790660025 790660024 -723673549#2 -723673549#1 102780889#1 102780889#2 102780889#3 1270942551 1270942553#0 405322254"/>
    </vehicle>
    <vehicle id="111" depart="111.00">
        <route edges="-338782494#1 338782495#0 338782495#1 -338782496#0 338782498#1 338782481 338782497#0 338782497#1 1270942545#2 1270942545#3 69866428#2 102782749 102782759 1270942548 914304999#0 914304999#1 914304999#2 -424217539#2 -424217539#1 -424217539#0 -132227041 -132227042 -424120532 -424120531 -424217540 -132227026#5 -132227026#4 -132227026#3 -132227026#2 132235396#0 132235396#1 132235396#2 132235396#3 132235396#5 163411771#2"/>
    </vehicle>
    <vehicle id="112" depart="112.00">
        <route edges="168475975#0 168475975#1 168475975#2 171537759 102780939#1 102780939#2 -1047794601 -1047794602 -342007668#6 -342007668#5 -342007668#4 -342007668#3 -342007668#2 -342007668#0 -790659959 -790659960#2 790659960#2"/>
    </vehicle>
    <vehicle id="114" depart="114.00">
        <route edges="168457273#1 168457273#2 164316059 164316027#0 -342007722#0 -164316019#0 -164316025 -164316029#2 -164316029#1 -164316029#0 -164316041 -164316042#1 -164316042#0 -164316007"/>
    </vehicle>
    <vehicle id="115" depart="115.00">
        <route edges="342007717#1 413977263#2 338789909 338789915#0 338789915#1 338789915#2 338789915#3 338789904 338789901 108718550#2 108718491 108718520#0 108718520#1 108718528 108718509#0 108718509#1 108718486 424143553#0 424143553#1 108718482#0 108718482#1 108718497 70266615 424217534 108718488 424217536#0 -168413564#3 -168413564#2"/>
    </vehicle>
    <vehicle id="116" depart="116.00">
        <route edges="-790660027#1 723673545#5 790660025 790660024 102780939#4 102780939#5 102781008 132230478#0 132230478#1 132230478#2 132230478#3 171537754 132230752 132230491#0 132230491#1 132230491#2 424217546#0 424217546#1 424217546#2 132227026#0 132227026#1 132227026#2 132227026#3 132227026#4"/>
    </vehicle>
    <vehicle id="117" depart="117.00">
        <route edges="102780939#2 102780939#3 -723673549#2 -723673549#1 102780889#1 171537760#1 171537760#2 168475968 168475972#0 121047580 121047541 121047577 121047593 121047547 121047561"/>
    </vehicle>
    <vehicle id="118" depart="118.00">
        <route edges="164316027#0 342007722#1 342007703 723673545#0 723673545#1 723673545#3 723673545#4 723673545#5 790660025 790660024 -723673549#2 -723673549#1 102780889#1 171537760#1 171537760#2 168475968 168475972#0 132233522#2"/>
    </vehicle>
    <vehicle id="119" depart="119.00">
        <route edges="121047587 121047567 121047551 121047566 132233522#2 168475971 168475975#0 168475975#1 168475975#2 171537759 102780939#1 102780939#2 -1047794601 -1047794602 -342007668#6 -342007668#5 -342007668#4 -342007668#3 -342007674"/>
    </vehicle>
    <vehicle id="120" depart="120.00">
        <route edges="102780908 102780945#0 102780945#1 102780945#2 163400224 132230478#3 171537754 132230752 132230491#0 132230491#1 132230491#2 424217546#0 424217546#1 424217546#2 132227026#0 132227026#1 132235396#0 132235396#1 132235396#2 132235396#3"/>
    </vehicle>
    <vehicle id="121" depart="121.00">
        <route edges="790660013 723673551 -723673551 -790660013 -790660014 -790660019#2 -723673545#3 -723673545#1 -723673545#0 -342007703 -342007722#1 164316027#1 -164316027#1"/>
    </vehicle>
    <vehicle id="122" depart="122.00">
        <route edges="108718517#1 108718523 108718527#0 108718550#2 108718491 108718520#0 108718520#1 108718528 108718509#0 108718509#1 108718486 424143553#0 424143553#1 108718482#0 -132228614 -132228617#2 -132228617#1 -132228617#0 -132228615 -132228618#3 -132228618#2"/>
    </vehicle>
    <vehicle id="124" depart="124.00">
        <route edges="1047794605 1047794606 342007725 1047794581 1047794580#0 342007717#1 413977263#2 338789909 338789915#0 338789915#1 338789915#2 338789915#3 338789904 338789901 108718550#2 108718491 108718520#0 168457273#1 168457273#2 164316059 164316027#0 342007722#1 342007703 723673545#0 723673545#1 723673544#1 723673544#2 790660023 1052598230#0 1052598230#1 1052598230#2 1064300948 1052598231"/>
    </vehicle>
    <vehicle id="125" depart="125.00">