<?xml version="1.0" encoding="UTF-8"?>

<!-- generated on 2024-05-30 10:42:22 by Eclipse SUMO netconvert Version 1.19.0
<configuration xmlns:xsi="http://www.w3.org/2001/XMLSchema-instance" xsi:noNamespaceSchemaLocation="http://sumo.dlr.de/xsd/netconvertConfiguration.xsd">

    <input>
        <osm-files value="sumodata\sp.osm"/>
    </input>

    <output>
        <output-file value="sumodata\sp.net.xml"/>
    </output>

    <projection>
        <proj.utm value="true"/>
    </projection>

    <tls_building>
        <tls.discard-loaded value="true"/>
    </tls_building>

    <junctions>
        <junctions.join value="true"/>
        <junctions.join-dist value="50"/>
    </junctions>

</configuration>
-->

<net version="1.16" junctionCornerDetail="5" limitTurnSpeed="5.50" xmlns:xsi="http://www.w3.org/2001/XMLSchema-instance" xsi:noNamespaceSchemaLocation="http://sumo.dlr.de/xsd/net_file.xsd">

    <location netOffset="-355922.45,-3461656.85" convBoundary="0.00,0.00,1299.88,772.91" origBoundary="121.486341,31.280421,121.500079,31.287363" projParameter="+proj=utm +zone=51 +ellps=WGS84 +datum=WGS84 +units=m +no_defs"/>

    <type id="highway.footway" priority="1" numLanes="1" speed="2.78" allow="pedestrian" oneway="1" width="2.00"/>
    <type id="highway.path" priority="1" numLanes="1" speed="5.56" allow="pedestrian bicycle" oneway="0" width="2.00"/>
    <type id="highway.service" priority="1" numLanes="1" speed="5.56" allow="pedestrian delivery bicycle" oneway="0"/>
    <type id="highway.tertiary" priority="10" numLanes="1" speed="22.22" disallow="tram rail_urban rail rail_electric rail_fast ship" oneway="0"/>

    <edge id=":10009236250_0" function="internal">
        <lane id=":10009236250_0_0" index="0" allow="pedestrian delivery bicycle" speed="3.65" length="4.67" shape="174.93,255.56 173.74,254.76 173.35,253.95 173.75,253.16 174.96,252.36"/>
    </edge>
    <edge id=":10009264781_0" function="internal">
        <lane id=":10009264781_0_0" index="0" disallow="tram rail_urban rail rail_electric rail_fast ship" speed="22.22" length="9.40" shape="228.39,425.57 218.99,425.99"/>
    </edge>
    <edge id=":10009264781_1" function="internal">
        <lane id=":10009264781_1_0" index="0" allow="pedestrian delivery bicycle" speed="6.03" length="7.89" shape="228.39,425.57 225.60,425.48 223.61,424.94 222.42,423.95 222.03,422.51"/>
    </edge>
    <edge id=":10009264781_2" function="internal">
        <lane id=":10009264781_2_0" index="0" allow="pedestrian delivery bicycle" speed="6.22" length="7.83" shape="225.23,422.53 224.83,423.93 223.66,424.98 221.72,425.67 218.99,425.99"/>
    </edge>
    <edge id=":10009264781_3" function="internal">
        <lane id=":10009264781_3_0" index="0" allow="pedestrian delivery bicycle" speed="3.65" length="4.67" shape="225.23,422.53 224.42,423.72 223.62,424.12 222.82,423.72 222.03,422.51"/>
    </edge>
    <edge id=":10009264782_0" function="internal">
        <lane id=":10009264782_0_0" index="0" allow="pedestrian delivery bicycle" speed="5.12" length="5.09" shape="228.75,316.43 227.41,316.67 226.46,317.29 225.88,318.31 225.68,319.71"/>
    </edge>
    <edge id=":10009264782_1" function="internal">
        <lane id=":10009264782_1_0" index="0" allow="pedestrian delivery bicycle" speed="5.56" length="9.39" shape="228.75,316.43 219.36,316.61"/>
    </edge>
    <edge id=":10009264782_2" function="internal">
        <lane id=":10009264782_2_0" index="0" allow="pedestrian delivery bicycle" speed="3.65" length="4.67" shape="228.75,316.43 227.53,315.66 227.11,314.87 227.49,314.06 228.67,313.24"/>
    </edge>
    <edge id=":10009264782_3" function="internal">
        <lane id=":10009264782_3_0" index="0" allow="pedestrian delivery bicycle" speed="5.56" length="9.36" shape="219.32,313.41 228.67,313.24"/>
    </edge>
    <edge id=":10009264782_4" function="internal">
        <lane id=":10009264782_4_0" index="0" allow="pedestrian delivery bicycle" speed="5.56" length="10.25" shape="219.32,313.41 222.11,313.77 224.11,314.94 225.29,316.92 225.68,319.71"/>
    </edge>
    <edge id=":10009264782_5" function="internal">
        <lane id=":10009264782_5_0" index="0" allow="pedestrian delivery bicycle" speed="3.65" length="4.67" shape="219.32,313.41 220.53,314.20 220.94,314.99 220.55,315.80 219.36,316.61"/>
    </edge>
    <edge id=":10009264782_6" function="internal">
        <lane id=":10009264782_6_0" index="0" allow="pedestrian delivery bicycle" speed="5.02" length="5.02" shape="222.48,319.70 222.29,318.33 221.71,317.36 220.73,316.79 219.36,316.61"/>
    </edge>
    <edge id=":10009264782_7" function="internal">
        <lane id=":10009264782_7_0" index="0" allow="pedestrian delivery bicycle" speed="5.56" length="10.14" shape="222.48,319.70 222.88,316.93 224.04,314.92 225.98,313.69 228.67,313.24"/>
    </edge>
    <edge id=":10009264782_8" function="internal">
        <lane id=":10009264782_8_0" index="0" allow="pedestrian delivery bicycle" speed="3.65" length="4.67" shape="222.48,319.70 223.29,318.50 224.09,318.11 224.89,318.51 225.68,319.71"/>
    </edge>
    <edge id=":10009264783_0" function="internal">
        <lane id=":10009264783_0_0" index="0" allow="pedestrian delivery bicycle" speed="5.06" length="5.02" shape="351.33,316.58 351.09,315.23 350.47,314.28 349.48,313.73 348.11,313.57"/>
    </edge>
    <edge id=":10009264783_1" function="internal">
        <lane id=":10009264783_1_0" index="0" allow="pedestrian delivery bicycle" speed="5.56" length="9.41" shape="351.33,316.58 351.05,307.17"/>
    </edge>
    <edge id=":10009264783_2" function="internal">
        <lane id=":10009264783_2_0" index="0" allow="pedestrian delivery bicycle" speed="5.56" length="10.17" shape="351.33,316.58 351.64,313.82 352.76,311.82 354.70,310.57 357.45,310.08"/>
    </edge>
    <edge id=":10009264783_3" function="internal">
        <lane id=":10009264783_3_0" index="0" allow="pedestrian delivery bicycle" speed="3.65" length="4.67" shape="351.33,316.58 352.09,315.36 352.88,314.93 353.69,315.31 354.52,316.48"/>
    </edge>
    <edge id=":10009264783_4" function="internal">
        <lane id=":10009264783_4_0" index="0" allow="pedestrian delivery bicycle" speed="5.06" length="5.03" shape="357.56,313.28 356.20,313.52 355.24,314.14 354.68,315.12 354.52,316.48"/>
    </edge>
    <edge id=":10009264783_5" function="internal">
        <lane id=":10009264783_5_0" index="0" allow="pedestrian delivery bicycle" speed="5.56" length="9.46" shape="357.56,313.28 348.11,313.57"/>
    </edge>
    <edge id=":10009264783_6" function="internal">
        <lane id=":10009264783_6_0" index="0" allow="pedestrian delivery bicycle" speed="5.56" length="10.20" shape="357.56,313.28 354.78,312.98 352.77,311.87 351.52,309.93 351.05,307.17"/>
    </edge>
    <edge id=":10009264783_7" function="internal">
        <lane id=":10009264783_7_0" index="0" allow="pedestrian delivery bicycle" speed="3.65" length="4.67" shape="357.56,313.28 356.34,312.52 355.91,311.74 356.28,310.92 357.45,310.08"/>
    </edge>
    <edge id=":10009264783_8" function="internal">
        <lane id=":10009264783_8_0" index="0" allow="pedestrian delivery bicycle" speed="5.03" length="5.01" shape="354.25,307.08 354.48,308.44 355.09,309.39 356.08,309.94 357.45,310.08"/>
    </edge>
    <edge id=":10009264783_9" function="internal">
        <lane id=":10009264783_9_0" index="0" allow="pedestrian delivery bicycle" speed="5.56" length="9.40" shape="354.25,307.08 354.52,316.48"/>
    </edge>
    <edge id=":10009264783_10" function="internal">
        <lane id=":10009264783_10_0" index="0" allow="pedestrian delivery bicycle" speed="5.56" length="10.19" shape="354.25,307.08 353.93,309.86 352.80,311.87 350.86,313.10 348.11,313.57"/>
    </edge>
    <edge id=":10009264783_11" function="internal">
        <lane id=":10009264783_11_0" index="0" allow="pedestrian delivery bicycle" speed="3.65" length="4.67" shape="354.25,307.08 353.48,308.31 352.69,308.73 351.88,308.35 351.05,307.17"/>
    </edge>
    <edge id=":10009264783_12" function="internal">
        <lane id=":10009264783_12_0" index="0" allow="pedestrian delivery bicycle" speed="5.04" length="5.01" shape="348.03,310.37 349.39,310.14 350.34,309.53 350.89,308.54 351.05,307.17"/>
    </edge>
    <edge id=":10009264783_13" function="internal">
        <lane id=":10009264783_13_0" index="0" allow="pedestrian delivery bicycle" speed="5.56" length="9.42" shape="348.03,310.37 357.45,310.08"/>
    </edge>
    <edge id=":10009264783_14" function="internal">
        <lane id=":10009264783_14_0" index="0" allow="pedestrian delivery bicycle" speed="5.56" length="10.16" shape="348.03,310.37 350.80,310.69 352.81,311.82 354.05,313.75 354.52,316.48"/>
    </edge>
    <edge id=":10009264783_15" function="internal">
        <lane id=":10009264783_15_0" index="0" allow="pedestrian delivery bicycle" speed="3.65" length="4.67" shape="348.03,310.37 349.25,311.14 349.67,311.93 349.29,312.74 348.11,313.57"/>
    </edge>
    <edge id=":10009264784_0" function="internal">
        <lane id=":10009264784_0_0" index="0" allow="pedestrian delivery bicycle" speed="5.02" length="5.03" shape="402.26,314.79 402.04,313.42 401.44,312.46 400.46,311.91 399.08,311.76"/>
    </edge>
    <edge id=":10009264784_1" function="internal">
        <lane id=":10009264784_1_0" index="0" allow="pedestrian delivery bicycle" speed="5.56" length="9.48" shape="402.26,314.79 402.13,305.31"/>
    </edge>
    <edge id=":10009264784_2" function="internal">
        <lane id=":10009264784_2_0" index="0" allow="pedestrian delivery bicycle" speed="5.56" length="10.22" shape="402.26,314.79 402.61,311.99 403.77,309.98 405.72,308.76 408.47,308.32"/>
    </edge>
    <edge id=":10009264784_3" function="internal">
        <lane id=":10009264784_3_0" index="0" allow="pedestrian delivery bicycle" speed="3.65" length="4.67" shape="402.26,314.79 403.04,313.57 403.84,313.16 404.64,313.55 405.46,314.74"/>
    </edge>
    <edge id=":10009264784_4" function="internal">
        <lane id=":10009264784_4_0" index="0" allow="pedestrian delivery bicycle" speed="5.07" length="5.07" shape="408.52,311.52 407.17,311.74 406.20,312.35 405.63,313.35 405.46,314.74"/>
    </edge>
    <edge id=":10009264784_5" function="internal">
        <lane id=":10009264784_5_0" index="0" allow="pedestrian delivery bicycle" speed="5.56" length="9.45" shape="408.52,311.52 399.08,311.76"/>
    </edge>
    <edge id=":10009264784_6" function="internal">
        <lane id=":10009264784_6_0" index="0" allow="pedestrian delivery bicycle" speed="5.56" length="10.17" shape="408.52,311.52 405.76,311.17 403.77,310.01 402.56,308.06 402.13,305.31"/>
    </edge>
    <edge id=":10009264784_7" function="internal">
        <lane id=":10009264784_7_0" index="0" allow="pedestrian delivery bicycle" speed="3.65" length="4.67" shape="408.52,311.52 407.31,310.74 406.90,309.94 407.29,309.14 408.47,308.32"/>
    </edge>
    <edge id=":10009264784_8" function="internal">
        <lane id=":10009264784_8_0" index="0" allow="pedestrian delivery bicycle" speed="5.04" length="5.00" shape="405.33,305.26 405.54,306.62 406.14,307.58 407.11,308.14 408.47,308.32"/>
    </edge>
    <edge id=":10009264784_9" function="internal">
        <lane id=":10009264784_9_0" index="0" allow="pedestrian delivery bicycle" speed="5.56" length="9.48" shape="405.33,305.26 405.46,314.74"/>
    </edge>
    <edge id=":10009264784_10" function="internal">
        <lane id=":10009264784_10_0" index="0" allow="pedestrian delivery bicycle" speed="5.56" length="10.23" shape="405.33,305.26 404.97,308.02 403.81,310.02 401.85,311.27 399.08,311.76"/>
    </edge>
    <edge id=":10009264784_11" function="internal">
        <lane id=":10009264784_11_0" index="0" allow="pedestrian delivery bicycle" speed="3.65" length="4.67" shape="405.33,305.26 404.54,306.47 403.75,306.89 402.94,306.50 402.13,305.31"/>
    </edge>
    <edge id=":10009264784_12" function="internal">
        <lane id=":10009264784_12_0" index="0" allow="pedestrian delivery bicycle" speed="5.14" length="5.15" shape="398.96,308.57 400.36,308.32 401.36,307.69 401.95,306.69 402.13,305.31"/>
    </edge>
    <edge id=":10009264784_13" function="internal">
        <lane id=":10009264784_13_0" index="0" allow="pedestrian delivery bicycle" speed="5.56" length="9.51" shape="398.96,308.57 408.47,308.32"/>
    </edge>
    <edge id=":10009264784_14" function="internal">
        <lane id=":10009264784_14_0" index="0" allow="pedestrian delivery bicycle" speed="5.56" length="10.27" shape="398.96,308.57 401.77,308.86 403.79,309.99 405.02,311.95 405.46,314.74"/>
    </edge>
    <edge id=":10009264784_15" function="internal">
        <lane id=":10009264784_15_0" index="0" allow="pedestrian delivery bicycle" speed="3.65" length="4.67" shape="398.96,308.57 400.19,309.32 400.62,310.11 400.25,310.92 399.08,311.76"/>
    </edge>
    <edge id=":10009264785_0" function="internal">
        <lane id=":10009264785_0_0" index="0" allow="pedestrian delivery bicycle" speed="3.65" length="4.67" shape="489.36,307.14 490.57,307.93 490.98,308.72 490.60,309.53 489.41,310.34"/>
    </edge>
    <edge id=":10009264786_0" function="internal">
        <lane id=":10009264786_0_0" index="0" disallow="tram rail_urban rail rail_electric rail_fast ship" speed="22.22" length="9.40" shape="360.76,419.76 351.37,420.18"/>
    </edge>
    <edge id=":10009264786_1" function="internal">
        <lane id=":10009264786_1_0" index="0" allow="pedestrian delivery bicycle" speed="6.07" length="7.79" shape="360.76,419.76 357.99,419.69 356.00,419.18 354.79,418.24 354.35,416.88"/>
    </edge>
    <edge id=":10009264786_2" function="internal">
        <lane id=":10009264786_2_0" index="0" allow="pedestrian delivery bicycle" speed="6.12" length="7.78" shape="357.55,416.78 357.20,418.16 356.05,419.19 354.11,419.86 351.37,420.18"/>
    </edge>
    <edge id=":10009264786_3" function="internal">
        <lane id=":10009264786_3_0" index="0" allow="pedestrian delivery bicycle" speed="3.65" length="4.67" shape="357.55,416.78 356.78,418.00 356.00,418.43 355.19,418.05 354.35,416.88"/>
    </edge>
    <edge id=":10009264787_0" function="internal">
        <lane id=":10009264787_0_0" index="0" allow="pedestrian delivery bicycle" speed="5.08" length="5.04" shape="349.70,262.00 349.47,260.63 348.86,259.66 347.87,259.09 346.52,258.92"/>
    </edge>
    <edge id=":10009264787_1" function="internal">
        <lane id=":10009264787_1_0" index="0" allow="pedestrian delivery bicycle" speed="5.56" length="10.20" shape="349.70,262.00 350.01,259.22 351.13,257.21 353.08,255.98 355.84,255.52"/>
    </edge>
    <edge id=":10009264787_2" function="internal">
        <lane id=":10009264787_2_0" index="0" allow="pedestrian delivery bicycle" speed="3.65" length="4.67" shape="349.70,262.00 350.46,260.78 351.25,260.35 352.06,260.73 352.90,261.90"/>
    </edge>
    <edge id=":10009264787_3" function="internal">
        <lane id=":10009264787_3_0" index="0" allow="pedestrian delivery bicycle" speed="5.03" length="5.01" shape="355.91,258.71 354.56,258.94 353.60,259.55 353.05,260.53 352.90,261.90"/>
    </edge>
    <edge id=":10009264787_4" function="internal">
        <lane id=":10009264787_4_0" index="0" allow="pedestrian delivery bicycle" speed="5.56" length="9.39" shape="355.91,258.71 346.52,258.92"/>
    </edge>
    <edge id=":10009264787_5" function="internal">
        <lane id=":10009264787_5_0" index="0" allow="pedestrian delivery bicycle" speed="3.65" length="4.67" shape="355.91,258.71 354.69,257.94 354.28,257.15 354.66,256.34 355.84,255.52"/>
    </edge>
    <edge id=":10009264787_6" function="internal">
        <lane id=":10009264787_6_0" index="0" allow="pedestrian delivery bicycle" speed="5.56" length="9.38" shape="346.46,255.72 355.84,255.52"/>
    </edge>
    <edge id=":10009264787_7" function="internal">
        <lane id=":10009264787_7_0" index="0" allow="pedestrian delivery bicycle" speed="5.56" length="10.15" shape="346.46,255.72 349.20,256.06 351.19,257.20 352.42,259.15 352.90,261.90"/>
    </edge>
    <edge id=":10009264787_8" function="internal">
        <lane id=":10009264787_8_0" index="0" allow="pedestrian delivery bicycle" speed="3.65" length="4.67" shape="346.46,255.72 347.67,256.50 348.09,257.29 347.70,258.10 346.52,258.92"/>
    </edge>
    <edge id=":10009264788_0" function="internal">
        <lane id=":10009264788_0_0" index="0" allow="pedestrian delivery bicycle" speed="5.56" length="9.44" shape="377.93,258.15 368.49,258.42"/>
    </edge>
    <edge id=":10009264788_1" function="internal">
        <lane id=":10009264788_1_0" index="0" allow="pedestrian delivery bicycle" speed="5.56" length="10.20" shape="377.93,258.15 375.15,257.84 373.14,256.72 371.90,254.78 371.44,252.02"/>
    </edge>
    <edge id=":10009264788_2" function="internal">
        <lane id=":10009264788_2_0" index="0" allow="pedestrian delivery bicycle" speed="3.65" length="4.67" shape="377.93,258.15 376.70,257.39 376.28,256.60 376.65,255.79 377.83,254.95"/>
    </edge>
    <edge id=":10009264788_3" function="internal">
        <lane id=":10009264788_3_0" index="0" allow="pedestrian delivery bicycle" speed="5.03" length="5.01" shape="374.64,251.94 374.87,253.30 375.47,254.25 376.46,254.80 377.83,254.95"/>
    </edge>
    <edge id=":10009264788_4" function="internal">
        <lane id=":10009264788_4_0" index="0" allow="pedestrian delivery bicycle" speed="5.56" length="10.18" shape="374.64,251.94 374.31,254.72 373.18,256.72 371.24,257.96 368.49,258.42"/>
    </edge>
    <edge id=":10009264788_5" function="internal">
        <lane id=":10009264788_5_0" index="0" allow="pedestrian delivery bicycle" speed="3.65" length="4.67" shape="374.64,251.94 373.87,253.16 373.08,253.58 372.27,253.20 371.44,252.02"/>
    </edge>
    <edge id=":10009264788_6" function="internal">
        <lane id=":10009264788_6_0" index="0" allow="pedestrian delivery bicycle" speed="5.04" length="5.02" shape="368.42,255.22 369.77,254.99 370.72,254.38 371.28,253.39 371.44,252.02"/>
    </edge>
    <edge id=":10009264788_7" function="internal">
        <lane id=":10009264788_7_0" index="0" allow="pedestrian delivery bicycle" speed="5.56" length="9.41" shape="368.42,255.22 377.83,254.95"/>
    </edge>
    <edge id=":10009264788_8" function="internal">
        <lane id=":10009264788_8_0" index="0" allow="pedestrian delivery bicycle" speed="3.65" length="4.67" shape="368.42,255.22 369.63,255.99 370.05,256.78 369.67,257.59 368.49,258.42"/>
    </edge>
    <edge id=":10009264790_0" function="internal">
        <lane id=":10009264790_0_0" index="0" disallow="tram rail_urban rail rail_electric rail_fast ship" speed="22.22" length="9.41" shape="241.22,425.00 231.83,425.42"/>
    </edge>
    <edge id=":10009264790_1" function="internal">
        <lane id=":10009264790_1_0" index="0" allow="pedestrian delivery bicycle" speed="6.04" length="7.87" shape="241.22,425.00 238.44,424.92 236.45,424.39 235.25,423.41 234.85,421.98"/>
    </edge>
    <edge id=":10009264790_2" function="internal">
        <lane id=":10009264790_2_0" index="0" allow="pedestrian delivery bicycle" speed="6.19" length="7.82" shape="238.05,421.97 237.67,423.38 236.50,424.42 234.55,425.10 231.83,425.42"/>
    </edge>
    <edge id=":10009264790_3" function="internal">
        <lane id=":10009264790_3_0" index="0" allow="pedestrian delivery bicycle" speed="3.65" length="4.67" shape="238.05,421.97 237.25,423.18 236.46,423.58 235.65,423.18 234.85,421.98"/>
    </edge>
    <edge id=":10009264792_0" function="internal">
        <lane id=":10009264792_0_0" index="0" allow="pedestrian delivery bicycle" speed="3.65" length="4.67" shape="248.27,360.88 249.58,360.27 250.47,360.35 250.95,361.10 251.01,362.54"/>
    </edge>
    <edge id=":10009264793_0" function="internal">
        <lane id=":10009264793_0_0" index="0" allow="pedestrian delivery bicycle" speed="5.12" length="5.10" shape="228.81,339.68 227.40,339.91 226.39,340.50 225.78,341.47 225.57,342.81"/>
    </edge>
    <edge id=":10009264793_1" function="internal">
        <lane id=":10009264793_1_0" index="0" allow="pedestrian delivery bicycle" speed="5.56" length="10.29" shape="228.81,339.68 226.00,339.34 224.00,338.18 222.80,336.20 222.42,333.39"/>
    </edge>
    <edge id=":10009264793_2" function="internal">
        <lane id=":10009264793_2_0" index="0" allow="pedestrian delivery bicycle" speed="3.65" length="4.67" shape="228.81,339.68 227.59,338.91 227.17,338.12 227.56,337.31 228.74,336.49"/>
    </edge>
    <edge id=":10009264793_3" function="internal">
        <lane id=":10009264793_3_0" index="0" allow="pedestrian delivery bicycle" speed="5.01" length="5.03" shape="225.62,333.41 225.81,334.78 226.39,335.75 227.37,336.32 228.74,336.49"/>
    </edge>
    <edge id=":10009264793_4" function="internal">
        <lane id=":10009264793_4_0" index="0" allow="pedestrian delivery bicycle" speed="5.56" length="9.40" shape="225.62,333.41 225.57,342.81"/>
    </edge>
    <edge id=":10009264793_5" function="internal">
        <lane id=":10009264793_5_0" index="0" allow="pedestrian delivery bicycle" speed="3.65" length="4.67" shape="225.62,333.41 224.81,334.61 224.01,335.00 223.21,334.60 222.42,333.39"/>
    </edge>
    <edge id=":10009264793_6" function="internal">
        <lane id=":10009264793_6_0" index="0" allow="pedestrian delivery bicycle" speed="5.56" length="9.40" shape="222.37,342.80 222.42,333.39"/>
    </edge>
    <edge id=":10009264793_7" function="internal">
        <lane id=":10009264793_7_0" index="0" allow="pedestrian delivery bicycle" speed="5.56" length="10.17" shape="222.37,342.80 222.78,340.09 223.98,338.13 225.97,336.93 228.74,336.49"/>
    </edge>
    <edge id=":10009264793_8" function="internal">
        <lane id=":10009264793_8_0" index="0" allow="pedestrian delivery bicycle" speed="3.65" length="4.67" shape="222.37,342.80 223.18,341.60 223.98,341.21 224.78,341.61 225.57,342.81"/>
    </edge>
    <edge id=":10009264794_0" function="internal">
        <lane id=":10009264794_0_0" index="0" allow="pedestrian delivery bicycle" speed="5.10" length="5.12" shape="352.04,340.32 351.80,338.93 351.18,337.95 350.18,337.37 348.80,337.20"/>
    </edge>
    <edge id=":10009264794_1" function="internal">
        <lane id=":10009264794_1_0" index="0" allow="pedestrian delivery bicycle" speed="5.56" length="9.50" shape="352.04,340.32 351.76,330.82"/>
    </edge>
    <edge id=":10009264794_2" function="internal">
        <lane id=":10009264794_2_0" index="0" allow="pedestrian delivery bicycle" speed="5.56" length="10.26" shape="352.04,340.32 352.36,337.51 353.50,335.50 355.46,334.28 358.25,333.86"/>
    </edge>
    <edge id=":10009264794_3" function="internal">
        <lane id=":10009264794_3_0" index="0" allow="pedestrian delivery bicycle" speed="3.65" length="4.67" shape="352.04,340.32 352.81,339.09 353.59,338.67 354.40,339.04 355.24,340.22"/>
    </edge>
    <edge id=":10009264794_4" function="internal">
        <lane id=":10009264794_4_0" index="0" allow="pedestrian delivery bicycle" speed="5.02" length="5.02" shape="358.28,337.06 356.91,337.27 355.95,337.86 355.39,338.85 355.24,340.22"/>
    </edge>
    <edge id=":10009264794_5" function="internal">
        <lane id=":10009264794_5_0" index="0" allow="pedestrian delivery bicycle" speed="5.56" length="9.48" shape="358.28,337.06 348.80,337.20"/>
    </edge>
    <edge id=":10009264794_6" function="internal">
        <lane id=":10009264794_6_0" index="0" allow="pedestrian delivery bicycle" speed="5.56" length="10.24" shape="358.28,337.06 355.50,336.69 353.48,335.53 352.23,333.57 351.76,330.82"/>
    </edge>
    <edge id=":10009264794_7" function="internal">
        <lane id=":10009264794_7_0" index="0" allow="pedestrian delivery bicycle" speed="3.65" length="4.67" shape="358.28,337.06 357.07,336.27 356.66,335.47 357.06,334.67 358.25,333.86"/>
    </edge>
    <edge id=":10009264794_8" function="internal">
        <lane id=":10009264794_8_0" index="0" allow="pedestrian delivery bicycle" speed="5.14" length="5.16" shape="354.95,330.73 355.20,332.11 355.83,333.09 356.84,333.67 358.25,333.86"/>
    </edge>
    <edge id=":10009264794_9" function="internal">
        <lane id=":10009264794_9_0" index="0" allow="pedestrian delivery bicycle" speed="5.56" length="9.50" shape="354.95,330.73 355.24,340.22"/>
    </edge>
    <edge id=":10009264794_10" function="internal">
        <lane id=":10009264794_10_0" index="0" allow="pedestrian delivery bicycle" speed="5.56" length="10.21" shape="354.95,330.73 354.64,333.51 353.51,335.52 351.56,336.75 348.80,337.20"/>
    </edge>
    <edge id=":10009264794_11" function="internal">
        <lane id=":10009264794_11_0" index="0" allow="pedestrian delivery bicycle" speed="3.65" length="4.67" shape="354.95,330.73 354.19,331.95 353.40,332.37 352.59,332.00 351.76,330.82"/>
    </edge>
    <edge id=":10009264794_12" function="internal">
        <lane id=":10009264794_12_0" index="0" allow="pedestrian delivery bicycle" speed="5.03" length="5.01" shape="348.73,334.00 350.09,333.78 351.05,333.17 351.60,332.19 351.76,330.82"/>
    </edge>
    <edge id=":10009264794_13" function="internal">
        <lane id=":10009264794_13_0" index="0" allow="pedestrian delivery bicycle" speed="5.56" length="9.52" shape="348.73,334.00 358.25,333.86"/>
    </edge>
    <edge id=":10009264794_14" function="internal">
        <lane id=":10009264794_14_0" index="0" allow="pedestrian delivery bicycle" speed="5.56" length="10.24" shape="348.73,334.00 351.51,334.34 353.52,335.49 354.76,337.45 355.24,340.22"/>
    </edge>
    <edge id=":10009264794_15" function="internal">
        <lane id=":10009264794_15_0" index="0" allow="pedestrian delivery bicycle" speed="3.65" length="4.67" shape="348.73,334.00 349.95,334.78 350.37,335.57 349.98,336.37 348.80,337.20"/>
    </edge>
    <edge id=":10009264795_0" function="internal">
        <lane id=":10009264795_0_0" index="0" allow="pedestrian delivery bicycle" speed="5.23" length="5.31" shape="456.50,335.65 455.07,335.88 454.04,336.51 453.41,337.54 453.19,338.97"/>
    </edge>
    <edge id=":10009264795_1" function="internal">
        <lane id=":10009264795_1_0" index="0" allow="pedestrian delivery bicycle" speed="5.56" length="9.62" shape="456.50,335.65 446.88,335.84"/>
    </edge>
    <edge id=":10009264795_2" function="internal">
        <lane id=":10009264795_2_0" index="0" allow="pedestrian delivery bicycle" speed="5.56" length="10.33" shape="456.50,335.65 453.68,335.30 451.67,334.13 450.49,332.14 450.12,329.31"/>
    </edge>
    <edge id=":10009264795_3" function="internal">
        <lane id=":10009264795_3_0" index="0" allow="pedestrian delivery bicycle" speed="3.65" length="4.67" shape="456.50,335.65 455.28,334.87 454.87,334.08 455.25,333.27 456.43,332.45"/>
    </edge>
    <edge id=":10009264795_4" function="internal">
        <lane id=":10009264795_4_0" index="0" allow="pedestrian delivery bicycle" speed="5.00" length="5.04" shape="453.32,329.36 453.50,330.74 454.08,331.71 455.06,332.28 456.43,332.45"/>
    </edge>
    <edge id=":10009264795_5" function="internal">
        <lane id=":10009264795_5_0" index="0" allow="pedestrian delivery bicycle" speed="5.56" length="9.62" shape="453.32,329.36 453.19,338.97"/>
    </edge>
    <edge id=":10009264795_6" function="internal">
        <lane id=":10009264795_6_0" index="0" allow="pedestrian delivery bicycle" speed="5.56" length="10.34" shape="453.32,329.36 452.89,332.15 451.67,334.16 449.67,335.39 446.88,335.84"/>
    </edge>
    <edge id=":10009264795_7" function="internal">
        <lane id=":10009264795_7_0" index="0" allow="pedestrian delivery bicycle" speed="3.65" length="4.67" shape="453.32,329.36 452.51,330.55 451.70,330.94 450.91,330.53 450.12,329.31"/>
    </edge>
    <edge id=":10009264795_8" function="internal">
        <lane id=":10009264795_8_0" index="0" allow="pedestrian delivery bicycle" speed="5.22" length="5.30" shape="446.82,332.64 448.25,332.41 449.27,331.78 449.90,330.75 450.12,329.31"/>
    </edge>
    <edge id=":10009264795_9" function="internal">
        <lane id=":10009264795_9_0" index="0" allow="pedestrian delivery bicycle" speed="5.56" length="9.61" shape="446.82,332.64 456.43,332.45"/>
    </edge>
    <edge id=":10009264795_10" function="internal">
        <lane id=":10009264795_10_0" index="0" allow="pedestrian delivery bicycle" speed="5.56" length="10.32" shape="446.82,332.64 449.64,332.99 451.64,334.16 452.82,336.16 453.19,338.97"/>
    </edge>
    <edge id=":10009264795_11" function="internal">
        <lane id=":10009264795_11_0" index="0" allow="pedestrian delivery bicycle" speed="3.65" length="4.67" shape="446.82,332.64 448.04,333.41 448.45,334.21 448.07,335.01 446.88,335.84"/>
    </edge>
    <edge id=":10009264795_12" function="internal">
        <lane id=":10009264795_12_0" index="0" allow="pedestrian delivery bicycle" speed="5.01" length="5.04" shape="449.99,338.93 449.81,337.55 449.23,336.58 448.26,336.01 446.88,335.84"/>
    </edge>
    <edge id=":10009264795_13" function="internal">
        <lane id=":10009264795_13_0" index="0" allow="pedestrian delivery bicycle" speed="5.56" length="9.62" shape="449.99,338.93 450.12,329.31"/>
    </edge>
    <edge id=":10009264795_14" function="internal">
        <lane id=":10009264795_14_0" index="0" allow="pedestrian delivery bicycle" speed="5.56" length="10.34" shape="449.99,338.93 450.43,336.14 451.64,334.13 453.65,332.90 456.43,332.45"/>
    </edge>
    <edge id=":10009264795_15" function="internal">
        <lane id=":10009264795_15_0" index="0" allow="pedestrian delivery bicycle" speed="3.65" length="4.67" shape="449.99,338.93 450.81,337.74 451.61,337.35 452.41,337.76 453.19,338.97"/>
    </edge>
    <edge id=":10009264796_0" function="internal">
        <lane id=":10009264796_0_0" index="0" allow="pedestrian delivery bicycle" speed="3.65" length="4.67" shape="488.97,331.78 490.18,332.56 490.60,333.35 490.21,334.16 489.03,334.98"/>
    </edge>
    <edge id=":10009264797_0" function="internal">