<?xml version="1.0" encoding="UTF-8"?>

<!-- generated on 2024-05-30 10:42:22 by Eclipse SUMO polyconvert Version 1.19.0
<configuration xmlns:xsi="http://www.w3.org/2001/XMLSchema-instance" xsi:noNamespaceSchemaLocation="http://sumo.dlr.de/xsd/polyconvertConfiguration.xsd">

    <input>
        <net-file value="sumodata\sp.net.xml"/>
        <osm-files value="sumodata\sp.osm"/>
    </input>

    <output>
        <output-file value="sumodata\sp.poly.xml"/>
    </output>

</configuration>
-->

<additional xmlns:xsi="http://www.w3.org/2001/XMLSchema-instance" xsi:noNamespaceSchemaLocation="http://sumo.dlr.de/xsd/additional_file.xsd">
    <location netOffset="-355922.45,-3461656.85" convBoundary="-1.46,-225.99,1601.86,1234.09" origBoundary="121.486341,31.278344,121.503192,31.291587" projParameter="+proj=utm +zone=51 +ellps=WGS84 +datum=WGS84 +units=m +no_defs"/>

    <poly id="1068911009" type="residential" color="235,235,227" fill="1" layer="-3.00" shape="352.174585,366.152775 496.265690,363.483015 503.310782,245.732982 457.580091,247.256381 376.054579,249.957151 373.309162,162.752220 372.669201,142.427678 370.251281,142.471854 302.863224,143.671441 300.362777,89.701569 189.381892,93.560957 179.956754,102.005255 178.390719,126.694997 182.443361,402.281255 224.432340,401.517443 224.197858,342.006334 351.579053,341.426134 352.174585,366.152775"/>
    <poly id="1068911025" type="building" color="255,230,230" fill="1" layer="-1.00" shape="234.647361,304.788692 234.673116,308.058966 242.994047,307.989332 242.922956,300.018847 238.457853,300.057836 238.399618,292.331086 230.973691,292.399550 231.012704,297.332672 229.156185,297.347018 229.137613,295.296202 223.977559,295.344717 224.062228,305.000220 229.050919,304.954052 229.038012,304.011845 230.970688,303.996456 230.972406,304.816861 234.647361,304.788692"/>
    <poly id="1068911026" type="building" color="255,230,230" fill="1" layer="-1.00" shape="262.735200,304.027012 262.760946,307.297286 271.072357,307.227804 271.010655,299.246105 266.545552,299.285082 266.477970,291.569548 259.052043,291.637992 259.100411,296.559899 257.234525,296.585454 257.215957,294.534638 252.055753,294.572055 252.140395,304.227558 257.129238,304.192488 257.125701,303.239066 259.048858,303.223812 259.060244,304.055171 262.735200,304.027012"/>
    <poly id="1068911027" type="building" color="255,230,230" fill="1" layer="-1.00" shape="287.362030,302.924760 287.387769,306.195034 295.708700,306.125441 295.637496,298.143873 291.172393,298.182839 291.104830,290.467306 283.688422,290.535602 283.727411,295.468724 281.870892,295.483060 281.852330,293.432244 276.692277,293.480733 276.776897,303.136235 281.756068,303.090223 281.752685,302.147885 283.685362,302.132506 283.687075,302.952911 287.362030,302.924760"/>
    <poly id="1068911028" type="building" color="255,230,230" fill="1" layer="-1.00" shape="270.631965,275.070834 270.667228,278.340977 278.978661,278.271503 278.907598,270.301019 274.451851,270.328777 274.384276,262.613244 266.958329,262.681681 266.997325,267.614803 265.140801,267.629142 265.122236,265.578326 259.962169,265.626823 260.046802,275.282325 265.035507,275.236175 265.022603,274.293968 266.955285,274.278585 266.966519,275.098860 270.631965,275.070834"/>
    <poly id="1068911029" type="building" color="255,230,230" fill="1" layer="-1.00" shape="219.383496,281.105593 219.409255,284.375867 227.730205,284.306221 227.659103,276.335736 223.193989,276.374731 223.135897,268.659066 215.709800,268.716455 215.748820,273.649578 213.892297,273.663926 213.873722,271.613109 208.713657,271.661632 208.798338,281.317136 213.787041,281.270960 213.774132,280.328753 215.706813,280.313362 215.708683,281.144851 219.383496,281.105593"/>
    <poly id="1068911030" type="building" color="255,230,230" fill="1" layer="-1.00" shape="195.681660,303.160600 195.707428,306.430874 204.018841,306.361339 203.957240,298.390723 199.492135,298.429729 199.424504,290.714194 192.007943,290.771470 192.046975,295.704593 190.180935,295.719076 190.171875,293.668129 185.011820,293.716663 185.096524,303.372168 190.075697,303.326111 190.072306,302.383774 191.995464,302.368508 192.006855,303.199867 195.681660,303.160600"/>
    <poly id="1068911031" type="building" color="255,230,230" fill="1" layer="-1.00" shape="195.183654,275.849374 195.209421,279.119648 203.520856,279.050114 203.449736,271.079628 198.994139,271.118504 198.926357,263.391884 191.500408,263.460375 191.539440,268.393497 189.682915,268.407850 189.664335,266.357033 184.504267,266.405567 184.588970,276.061072 189.577676,276.014885 189.564765,275.072678 191.497447,275.057282 191.508687,275.877556 195.183654,275.849374"/>
    <poly id="1068911032" type="building" color="255,230,230" fill="1" layer="-1.00" shape="194.288348,248.033597 194.314114,251.303871 202.625572,251.234337 202.563972,243.263721 198.098692,243.291642 198.031062,235.576107 190.605093,235.644598 190.653644,240.577590 188.787595,240.592073 188.769015,238.541256 183.608933,238.589790 183.703156,248.245164 188.682355,248.199108 188.678964,247.256770 190.602131,247.241505 190.613371,248.061779 194.288348,248.033597"/>
    <poly id="1068911033" type="building" color="255,230,230" fill="1" layer="-1.00" shape="218.947754,239.569064 218.973513,242.839337 227.284825,242.758738 227.223244,234.788123 222.758112,234.827118 222.690501,227.111584 215.264375,227.168972 215.312914,232.101964 213.446864,232.116442 213.428289,230.065626 208.268203,230.114148 208.352883,239.769651 213.341606,239.723477 213.328697,238.781270 215.261386,238.765878 215.272775,239.597237 218.947754,239.569064"/>
    <poly id="1068911034" type="building" color="255,230,230" fill="1" layer="-1.00" shape="233.689644,216.106865 233.715398,219.377138 242.036399,219.307506 241.965311,211.337022 237.500170,211.376010 237.441938,203.649261 230.015948,203.717723 230.054960,208.650845 228.198425,208.665190 228.179853,206.614374 223.019757,206.662888 223.104421,216.318391 228.083635,216.272354 228.080248,215.330017 230.012941,215.314628 230.014657,216.135033 233.689644,216.106865"/>
    <poly id="1068911035" type="building" color="255,230,230" fill="1" layer="-1.00" shape="193.519333,219.706094 193.545100,222.976368 201.856580,222.906834 201.794980,214.936219 197.329840,214.975224 197.262211,207.259690 189.836070,207.317096 189.884621,212.250087 188.018567,212.264570 187.999987,210.213754 182.839891,210.262288 182.924593,219.917791 187.913326,219.871605 187.900415,218.929398 189.833107,218.914002 189.844499,219.745361 193.519333,219.706094"/>
    <poly id="1068911046" type="building" color="255,230,230" fill="1" layer="-1.00" shape="233.849361,332.028975 285.167302,331.780667 285.114956,321.004950 233.797115,321.264340 233.849361,332.028975"/>
    <poly id="1068911047" type="building" color="255,230,230" fill="1" layer="-1.00" shape="293.032476,331.806008 344.350404,331.557989 344.298119,320.782274 292.980290,321.041375 293.032476,331.806008"/>
    <poly id="1068911048" type="building" color="255,230,230" fill="1" layer="-1.00" shape="250.662015,190.729374 301.797445,189.618907 301.539550,177.737320 250.404062,178.847786 250.662015,190.729374"/>
    <poly id="1068911052" type="building" color="255,230,230" fill="1" layer="-1.00" shape="182.994542,179.161498 221.771591,177.410656 221.672607,175.050510 240.780604,174.201159 241.284674,185.281121 222.690622,186.112344 222.800493,188.572124 183.500040,190.341223 182.994542,179.161498"/>
    <poly id="1068911053" type="building" color="255,230,230" fill="1" layer="-1.00" shape="251.391319,219.645019 290.620400,218.930398 290.426028,208.212062 251.196906,208.926682 251.391319,219.645019"/>
    <poly id="1068911054" type="building" color="255,230,230" fill="1" layer="-1.00" shape="252.876400,247.430541 292.095858,246.716052 291.901485,235.997715 252.672468,236.712334 252.876400,247.430541"/>
    <poly id="1068911058" type="building" color="255,230,230" fill="1" layer="-1.00" shape="322.384797,189.026620 366.621047,188.908955 366.589198,178.232745 322.362272,178.339193 322.384797,189.026620"/>
    <poly id="1068911060" type="building" color="255,230,230" fill="1" layer="-1.00" shape="297.447064,248.804719 328.541699,248.578570 328.489411,240.585657 326.870880,240.596727 326.839045,236.184592 299.047925,236.376598 299.081744,240.932836 297.387054,240.944953 297.447064,248.804719"/>
    <poly id="1068911061" type="building" color="255,230,230" fill="1" layer="-1.00" shape="337.462578,248.511886 368.557209,248.285856 368.504800,240.281860 366.886269,240.292923 366.854451,235.880788 339.063486,236.083773 339.097288,240.640011 337.402598,240.652122 337.462578,248.511886"/>
    <poly id="1068911062" type="building" color="255,230,230" fill="1" layer="-1.00" shape="336.806329,219.351335 367.910566,219.125175 367.848638,211.121309 366.230102,211.132373 366.207804,206.720108 338.407091,206.912137 338.441044,211.479460 336.755869,211.491440 336.806329,219.351335"/>
    <poly id="1068911063" type="building" color="255,230,230" fill="1" layer="-1.00" shape="185.119475,337.009422 221.342604,336.535276 221.263787,330.782270 219.607190,330.793879 219.489648,322.214252 186.903189,322.649654 187.002580,330.597579 185.031980,330.624583 185.119475,337.009422"/>
    <poly id="1068911064" type="building" color="255,230,230" fill="1" layer="-1.00" shape="185.940324,367.032511 222.163349,366.558364 222.084380,360.794273 220.427940,360.816967 220.310397,352.237339 187.723879,352.661658 187.823423,360.620668 185.852829,360.647672 185.940324,367.032511"/>
    <poly id="1068911065" type="building" color="255,230,230" fill="1" layer="-1.00" shape="185.580928,397.781335 221.794327,397.307313 221.724877,391.543091 220.058922,391.565915 219.950897,382.986157 187.354955,383.410611 187.464020,391.369491 185.493432,391.396495 185.580928,397.781335"/>
    <poly id="1068911066" type="building" color="255,230,230" fill="1" layer="-1.00" shape="359.879379,299.503967 399.098629,298.789870 398.904363,288.071535 359.684921,288.774546 359.879379,299.503967"/>
    <poly id="1068911067" type="building" color="255,230,230" fill="1" layer="-1.00" shape="358.614447,271.781951 397.843320,271.067723 397.649055,260.349388 358.420141,261.063615 358.614447,271.781951"/>
    <poly id="1068911068" type="building" color="255,230,230" fill="1" layer="-1.00" shape="359.672685,327.534384 398.901350,326.820152 398.707082,316.101816 359.478226,316.804962 359.672685,327.534384"/>
    <poly id="1068911069" type="building" color="255,230,230" fill="1" layer="-1.00" shape="361.207128,354.077506 400.435694,353.363276 400.241427,342.644940 361.012669,343.348084 361.207128,354.077506"/>
    <poly id="1068911070" type="building" color="255,230,230" fill="1" layer="-1.00" shape="407.384604,351.837991 446.613172,351.123935 446.418952,340.405599 407.190192,341.108570 407.384604,351.837991"/>
    <poly id="1068911071" type="building" color="255,230,230" fill="1" layer="-1.00" shape="407.445170,324.253054 446.673842,323.539002 446.479623,312.820667 407.250760,313.523634 407.445170,324.253054"/>
    <poly id="1068911072" type="building" color="255,230,230" fill="1" layer="-1.00" shape="457.488613,326.196052 496.717271,325.482186 496.523103,314.763852 457.294254,315.466633 457.488613,326.196052"/>
    <poly id="1068911073" type="building" color="255,230,230" fill="1" layer="-1.00" shape="459.024737,298.579855 498.243978,297.866128 498.049813,287.147795 458.830532,287.861520 459.024737,298.579855"/>
    <poly id="1068911074" type="building" color="255,230,230" fill="1" layer="-1.00" shape="461.423389,270.674691 500.652254,269.960847 500.458093,259.242514 461.229036,259.945272 461.423389,270.674691"/>
    <poly id="1068911075" type="building" color="255,230,230" fill="1" layer="-1.00" shape="406.876631,271.564989 446.095979,270.851072 445.901762,260.132738 406.682222,260.835569 406.876631,271.564989"/>
    <poly id="1068911076" type="amenity" color="237,199,199" fill="1" layer="-1.00" shape="407.769474,300.633605 425.426469,300.225733 425.351658,296.845264 444.160557,296.421665 443.858944,283.420907 425.383367,283.851032 425.451354,286.732685 407.461142,287.145116 407.769474,300.633605"/>
    <poly id="1068911076#1" type="building" color="255,230,230" fill="1" layer="-1.00" shape="407.769474,300.633605 425.426469,300.225733 425.351658,296.845264 444.160557,296.421665 443.858944,283.420907 425.383367,283.851032 425.451354,286.732685 407.461142,287.145116 407.769474,300.633605"/>
    <poly id="1068911077" type="kindergarten" color="237,199,199" fill="1" layer="-2.00" shape="311.883606,308.043739 349.297441,308.296556 347.916702,290.897994 346.971426,259.402070 282.110935,260.168104 311.883606,308.043739"/>
    <poly id="1068911078" type="school" color="237,199,199" fill="1" layer="-2.00" shape="457.580091,247.256381 453.836516,160.120550 419.400925,161.145926 373.309162,162.752220 376.054579,249.957151 457.580091,247.256381"/>
    <poly id="1068911079" type="school" color="237,199,199" fill="1" layer="-2.00" shape="503.310782,245.732982 508.047327,163.170950 502.857442,163.131039 501.970116,117.731425 492.771840,117.713061 492.233688,94.371509 488.710073,94.330993 488.746900,85.882308 436.212003,87.044242 436.687705,100.242179 409.305328,101.104583 409.685772,131.000630 419.119462,130.827224 419.400925,161.145926 453.836516,160.120550 457.580091,247.256381 503.310782,245.732982"/>
    <poly id="1073288355" type="amenity" color="237,199,199" fill="1" layer="-1.00" shape="223.448754,265.084808 223.530093,252.256187 241.275135,252.013105 241.578925,264.459497 223.448754,265.084808"/>
    <poly id="1073288355#1" type="building" color="255,230,230" fill="1" layer="-1.00" shape="223.448754,265.084808 223.530093,252.256187 241.275135,252.013105 241.578925,264.459497 223.448754,265.084808"/>
    <poly id="1073288370" type="leisure" color="207,245,201" fill="1" layer="-2.00" shape="464.216058,227.020805 498.620474,226.517074 497.825427,173.244528 463.430508,173.759210 464.216058,227.020805"/>
    <poly id="1073288370#1" type="sport" color="79,230,125" fill="1" layer="-2.00" shape="464.216058,227.020805 498.620474,226.517074 497.825427,173.244528 463.430508,173.759210 464.216058,227.020805"/>
    <poly id="1073288371" type="leisure" color="207,245,201" fill="1" layer="-2.00" shape="394.757421,170.796047 395.246751,195.424351 430.362695,194.722189 429.873447,170.093886 394.757421,170.796047"/>
    <poly id="1073288371#1" type="sport" color="79,230,125" fill="1" layer="-2.00" shape="394.757421,170.796047 395.246751,195.424351 430.362695,194.722189 429.873447,170.093886 394.757421,170.796047"/>
    <poly id="1073288373" type="building" color="255,230,230" fill="1" layer="-1.00" shape="403.319205,216.855666 408.268945,216.743597 410.296835,216.726939 410.369851,223.455663 414.177808,223.403565 414.192552,225.177261 416.439398,225.157608 416.406877,221.388522 446.843037,221.049780 446.919062,228.000199 449.860707,227.959964 449.841755,226.574366 454.344814,226.523862 454.172611,211.148748 441.872594,211.294812 410.162558,211.784037 403.260325,211.856298 403.319205,216.855666"/>
    <poly id="1073288374" type="building" color="255,230,230" fill="1" layer="-1.00" shape="441.872594,211.294812 441.181357,173.985909 450.273048,173.872641 450.657087,205.431666 453.789137,205.388828 454.172611,211.148748 441.872594,211.294812"/>
    <poly id="1073288375" type="building" color="255,230,230" fill="1" layer="-1.00" shape="387.401631,217.051290 402.252976,216.870254 403.319205,216.855666 403.260325,211.856298 410.162558,211.784037 410.094885,206.141752 393.796347,206.331492 393.840671,210.266720 387.319385,210.344866 387.401631,217.051290"/>
    <poly id="1073288376" type="building" color="255,230,230" fill="1" layer="-1.00" shape="380.729329,230.446826 382.478604,228.161169 382.429883,221.121679 387.256925,221.088887 387.286308,225.323666 389.914101,225.309882 389.930857,227.926151 388.893037,227.929265 388.916013,231.000011 390.010800,230.985031 390.117405,247.126039 383.909842,247.166635 381.154546,244.820664 380.729329,230.446826"/>
    <poly id="1073288377" type="building" color="255,230,230" fill="1" layer="-1.00" shape="402.252976,216.870254 403.319205,216.855666 408.268945,216.743597 408.594596,232.194222 411.120957,234.510071 411.392256,241.812599 406.576994,247.577126 396.409772,247.716238 391.710881,241.804716 391.674112,234.942453 397.319878,229.332859 402.507761,229.228616 402.252976,216.870254"/>
    <poly id="1092915641" type="building" color="255,230,230" fill="1" layer="-1.00" shape="240.816985,407.634676 266.193898,407.785989 266.280957,393.981645 254.073307,393.904938 254.095353,391.343569 250.134076,391.320220 250.155923,388.049294 247.680181,388.038858 248.337711,386.688340 240.948412,386.645430 240.816985,407.634676"/>
    <poly id="1092915642" type="building" color="255,230,230" fill="1" layer="-1.00" shape="253.128028,385.369909 297.437498,385.095691 297.319445,364.653126 253.000065,364.905301 253.128028,385.369909"/>
    <poly id="1092915642#1" type="tourism" color="207,245,201" fill="1" layer="-2.00" shape="253.128028,385.369909 297.437498,385.095691 297.319445,364.653126 253.000065,364.905301 253.128028,385.369909"/>
    <poly id="1092915643" type="amenity" color="237,199,199" fill="1" layer="-1.00" shape="295.158142,406.380427 297.535124,407.523087 303.391427,407.564853 303.402489,405.591239 330.769933,405.781975 330.787637,403.597620 339.519811,403.666558 339.377047,401.584182 339.222650,362.482923 299.673888,362.758293 299.467864,391.520446 295.268443,391.489254 295.158142,406.380427"/>
    <poly id="1092915644" type="amenity" color="237,199,199" fill="1" layer="-1.00" shape="339.222650,362.482923 351.140793,362.275436 351.220201,401.466414 339.377047,401.584182 339.222650,362.482923"/>
    <poly id="1092915645" type="building" color="255,230,230" fill="1" layer="-1.00" shape="431.757956,383.024475 436.403593,382.960923 436.385548,381.641834 440.974066,381.579065 441.073352,388.141127 448.774672,388.024694 448.677210,381.595649 474.313586,381.222837 474.412851,387.784899 482.894788,387.657816 482.798985,380.652232 488.548912,380.573601 488.570740,382.169810 493.226047,382.117238 493.061678,368.704389 485.740833,368.793412 485.731435,368.106156 482.437447,368.140115 482.440054,369.027028 468.530778,369.150730 468.520318,368.385879 465.626008,368.403291 465.645565,369.833228 458.486252,369.897887 458.473972,369.000019 455.827479,369.036217 455.841428,370.056018 441.399652,370.231386 441.381304,368.890127 438.839529,368.924897 438.858180,370.288326 431.575716,370.399035 431.757956,383.024475"/>
    <poly id="1092915646" type="building" color="255,230,230" fill="1" layer="-1.00" shape="361.640056,395.447754 366.285688,395.384171 366.267634,394.065081 370.856148,394.002282 370.955479,400.564345 378.656791,400.447860 378.559286,394.018814 404.195637,393.645830 404.294947,400.207893 412.776876,400.080752 412.681025,393.075167 418.430947,392.996498 418.452786,394.592707 423.108089,394.540103 422.943630,381.127253 415.622791,381.216325 415.613388,380.529068 412.319403,380.563049 412.322016,381.449962 398.412602,381.562673 398.402136,380.797823 395.507980,380.826338 395.527547,382.256275 388.368241,382.320983 388.355954,381.423115 385.709464,381.459331 385.723419,382.479131 371.281657,382.654597 371.263301,381.313338 368.721527,381.348125 368.740187,382.711554 361.457731,382.822312 361.640056,395.447754"/>
    <poly id="1093102262" type="residential" color="235,235,227" fill="1" layer="-3.00" shape="490.227516,421.860276 491.145901,505.032412 426.030421,506.532855 428.337891,578.455024 475.457300,576.934604 478.569653,658.302857 429.079800,659.822453 429.130221,664.899547 431.273488,716.468492 391.409884,717.989621 385.310348,718.250489 385.459513,721.496900 386.200649,765.213364 306.704075,765.603214 306.242078,730.475242 227.641256,730.942106 226.739171,737.373767 142.012113,738.235647 138.930271,698.176650 94.897055,699.756067 83.874889,738.190238 62.546231,745.744694 10.922459,749.235759 1.243509,538.606856 -1.458578,479.772575 27.604589,476.568831 30.438964,440.952140 490.227516,421.860276"/>
    <poly id="1093102267" type="kindergarten" color="237,199,199" fill="1" layer="-2.00" shape="141.861941,486.277293 174.453265,534.169350 214.363658,532.535922 212.349170,483.493022 141.861941,486.277293"/>
    <poly id="1093102268" type="building" color="255,230,230" fill="1" layer="-1.00" shape="192.142508,500.012176 195.512463,499.965996 199.750688,495.883384 199.865689,491.768578 195.085459,487.565635 191.632101,487.779261 187.571003,492.280750 187.618094,495.717036 192.142508,500.012176"/>
    <poly id="1093102285" type="building" color="255,230,230" fill="1" layer="-1.00" shape="291.614994,443.148652 291.259839,432.510122 323.580415,431.457802 323.925865,442.085377 291.614994,443.148652"/>
    <poly id="1093102286" type="building" color="255,230,230" fill="1" layer="-1.00" shape="330.358297,441.786664 329.933508,430.927351 377.839325,429.074241 378.254545,439.933685 330.358297,441.786664"/>
    <poly id="1093102287" type="building" color="255,230,230" fill="1" layer="-1.00" shape="233.527114,496.861898 233.102224,486.002584 280.998275,484.149154 281.423268,495.019553 233.527114,496.861898"/>
    <poly id="1093102288" type="building" color="255,230,230" fill="1" layer="-1.00" shape="235.109327,523.393282 234.684437,512.533968 282.589887,510.680409 283.005207,521.539854 235.109327,523.393282"/>
    <poly id="1093102289" type="building" color="255,230,230" fill="1" layer="-1.00" shape="235.707970,551.800736 235.343235,541.162334 283.279997,539.518994 283.644531,550.146310 235.707970,551.800736"/>
    <poly id="1093102290" type="building" color="255,230,230" fill="1" layer="-1.00" shape="192.861160,550.370000 192.515421,539.731338 224.826303,538.689916 225.181377,549.317363 192.861160,550.370000"/>
    <poly id="1093102291" type="building" color="255,230,230" fill="1" layer="-1.00" shape="209.576010,577.126410 209.220919,566.498962 241.541086,565.446374 241.886625,576.073951 209.576010,577.126410"/>
    <poly id="1093102292" type="building" color="255,230,230" fill="1" layer="-1.00" shape="324.892936,574.615638 334.628731,574.282783 334.522334,571.379481 340.689200,571.162013 340.784407,573.943514 350.301252,573.613671 350.160191,569.568895 346.905405,569.679971 346.795825,566.543888 349.451030,566.452106 349.219924,560.002713 325.646579,560.813256 325.898602,568.093878 327.773352,568.023863 327.851303,570.240169 324.739310,570.349297 324.892936,574.615638"/>
    <poly id="1093102293" type="building" color="255,230,230" fill="1" layer="-1.00" shape="355.807090,571.708970 365.542736,571.365059 365.446019,568.472711 371.603367,568.255392 371.698565,571.036892 381.224932,570.706947 381.083731,566.651087 377.819425,566.762284 377.710006,563.637285 380.365212,563.545512 380.143493,557.084903 356.570142,557.895376 356.822143,565.175998 358.697046,565.117074 358.774990,567.333380 355.662845,567.431414 355.807090,571.708970"/>
    <poly id="1093102294" type="building" color="255,230,230" fill="1" layer="-1.00" shape="297.794156,608.613169 307.529920,608.280288 307.423515,605.376985 313.590362,605.159501 313.685575,607.941001 323.202390,607.611132 323.061318,603.566357 319.806543,603.677442 319.696954,600.541358 322.352151,600.449569 322.130547,594.000046 298.557278,594.810652 298.799800,602.091405 300.674545,602.021385 300.752501,604.237691 297.650038,604.346697 297.794156,608.613169"/>
    <poly id="1093102296" type="building" color="255,230,230" fill="1" layer="-1.00" shape="325.623523,546.611293 335.349825,546.278570 335.252948,543.375137 341.410311,543.157801 341.515036,545.939171 351.031907,545.609330 350.890695,541.553470 347.635901,541.664545 347.526473,538.539547 350.172165,538.447896 349.950580,531.998373 326.377172,532.808911 326.629193,540.089533 328.503949,540.019518 328.581899,542.235825 325.469898,542.344952 325.623523,546.611293"/>
    <poly id="1093102297" type="building" color="255,230,230" fill="1" layer="-1.00" shape="292.706532,529.810846 302.442218,529.466878 302.335812,526.563575 308.502857,526.357174 308.598071,529.138675 318.114958,528.808804 317.973733,524.752944 314.718933,524.864029 314.609496,521.739031 317.264712,521.647242 317.042955,515.186634 293.469508,515.997245 293.721552,523.277867 295.586943,523.219061 295.664748,525.424283 292.562262,525.533290 292.706532,529.810846"/>
    <poly id="1093102298" type="building" color="255,230,230" fill="1" layer="-1.00" shape="354.175877,528.359477 363.722688,528.129020 363.654833,525.258450 369.775039,525.108161 369.842133,527.923307 378.332418,527.718410 378.224441,523.307316 376.244663,523.356585 376.179239,520.663372 377.188319,520.649562 377.047459,514.531540 355.155194,515.041832 355.313021,521.702878 357.159525,521.655430 357.224954,524.348642 354.083934,524.424898 354.175877,528.359477"/>
    <poly id="1093102301" type="building" color="255,230,230" fill="1" layer="-1.00" shape="178.518320,608.462230 188.253934,608.118153 188.157016,605.214720 194.314496,605.008381 194.409741,607.789881 203.936078,607.459774 203.794808,603.403913 200.530512,603.515166 200.430560,600.390037 203.076237,600.298348 202.854408,593.837739 179.281134,594.648614 179.533259,601.929236 181.408155,601.870280 181.485985,604.075502 178.374002,604.184673 178.518320,608.462230"/>
    <poly id="1093102318" type="building" color="255,230,230" fill="1" layer="-1.00" shape="392.156527,597.919727 421.578128,597.273222 421.329449,586.056718 391.907664,586.692138 392.156527,597.919727"/>
    <poly id="1093102319" type="building" color="255,230,230" fill="1" layer="-1.00" shape="390.823967,570.121019 422.812140,569.162226 422.490340,558.168461 390.492461,559.116298 390.823967,570.121019"/>
    <poly id="1093102320" type="building" color="255,230,230" fill="1" layer="-1.00" shape="389.926993,541.451574 421.915254,540.492783 421.583934,529.499148 389.595639,530.457939 389.926993,541.451574"/>
    <poly id="1093102321" type="building" color="255,230,230" fill="1" layer="-1.00" shape="448.152546,493.591196 447.726361,482.621034 486.201140,481.130245 486.627284,492.100407 448.152546,493.591196"/>
    <poly id="1093102322" type="building" color="255,230,230" fill="1" layer="-1.00" shape="448.450124,465.925409 448.023941,454.955247 486.498821,453.464463 486.924813,464.423540 448.450124,465.925409"/>
    <poly id="1093102323" type="building" color="255,230,230" fill="1" layer="-1.00" shape="402.128198,467.313057 401.701966,456.342895 440.176843,454.851940 440.602883,465.811017 402.128198,467.313057"/>
    <poly id="1093112842" type="school" color="237,199,199" fill="1" layer="-2.00" shape="428.337891,578.455024 475.457300,576.934604 498.643029,576.329260 491.145901,505.032412 426.030421,506.532855 428.337891,578.455024"/>
    <poly id="1093112843" type="amenity" color="237,199,199" fill="1" layer="-1.00" shape="388.153406,523.171433 406.342064,522.678625 406.074252,512.848242 405.994766,509.822616 387.806085,510.315423 388.153406,523.171433"/>
    <poly id="1093112843#1" type="building" color="255,230,230" fill="1" layer="-1.00" shape="388.153406,523.171433 406.342064,522.678625 406.074252,512.848242 405.994766,509.822616 387.806085,510.315423 388.153406,523.171433"/>
    <poly id="1093112844" type="amenity" color="237,199,199" fill="1" layer="-1.00" shape="406.342064,522.678625 406.295101,526.204890 421.143733,525.857593 420.837378,512.513202 406.074252,512.848242 406.342064,522.678625"/>
    <poly id="1093112844#1" type="building" color="255,230,230" fill="1" layer="-1.00" shape="406.342064,522.678625 406.295101,526.204890 421.143733,525.857593 420.837378,512.513202 406.074252,512.848242 406.342064,522.678625"/>
    <poly id="125456040" type="building" color="255,230,230" fill="1" layer="-1.00" shape="573.656571,640.738357 583.408827,659.031423 587.870668,656.675465 591.075623,662.674000 651.934763,630.555354 639.348496,606.923824 619.931678,617.167273 617.469447,612.566611 571.565156,636.797848 573.656571,640.738357"/>
    <poly id="125461261" type="amenity" color="237,199,199" fill="1" layer="-1.00" shape="631.401830,523.559482 637.551872,520.714836 639.513490,524.912128 659.042201,515.875664 671.606847,542.800308 727.790201,516.832696 713.077610,485.303018 707.087070,480.307038 697.350706,479.209348 631.676247,508.799134 633.451696,512.610928 627.557014,515.330132 631.401830,523.559482"/>
    <poly id="181555241" type="building" color="255,230,230" fill="1" layer="-1.00" shape="869.696930,332.528867 911.061790,294.358266 919.328632,308.481051 917.578050,310.677936 922.520345,319.103070 924.690552,316.955898 931.968511,328.386986 875.916191,354.296202 872.257386,347.128570 886.837998,338.281998 885.048109,334.104495 857.666977,355.953125 853.529579,345.809668 869.696930,332.528867"/>
    <poly id="183383457" type="building" color="255,230,230" fill="1" layer="-1.00" shape="844.344937,289.536212 894.578657,264.238350 900.844398,272.656515 867.280053,299.135021 866.826619,305.682438 863.171199,310.632674 856.634137,313.038982 849.896827,311.235029 846.119246,307.228774 845.015181,298.884359 844.344937,289.536212"/>
    <poly id="183383461" type="building" color="255,230,230" fill="1" layer="-1.00" shape="828.325244,673.758535 752.823983,528.143222 801.744736,503.017977 808.658427,516.360890 773.485410,534.424618 787.283499,561.055380 799.995809,585.572299 835.178059,567.497439 843.225879,583.020094 808.043519,601.083844 821.273883,626.591533 833.790510,650.734205 868.963219,632.670665 877.245459,648.633619 828.325244,673.758535"/>
    <poly id="183383473" type="building" color="255,230,230" fill="1" layer="-1.00" shape="867.218186,467.034916 859.822344,451.148571 958.983826,405.426995 966.379694,421.324489 867.218186,467.034916"/>
    <poly id="183383476" type="building" color="255,230,230" fill="1" layer="-1.00" shape="864.213312,526.656571 858.793702,516.741252 853.696245,507.409144 866.767687,500.323749 877.284887,519.582273 864.213312,526.656571"/>