<?xml version="1.0" encoding="UTF-8"?>

<!-- generated on 2024-05-16 15:50:09 by Eclipse SUMO netconvert Version 1.19.0
<configuration xmlns:xsi="http://www.w3.org/2001/XMLSchema-instance" xsi:noNamespaceSchemaLocation="http://sumo.dlr.de/xsd/netconvertConfiguration.xsd">

    <input>
        <osm-files value="../tools/tj.osm"/>
    </input>

    <output>
        <output-file value="../tools/tj.net.xml"/>
    </output>

    <projection>
        <proj.utm value="true"/>
    </projection>

    <edge_removal>
        <keep-edges.by-type value="highway.primary"/>
    </edge_removal>

    <junctions>
        <junctions.join value="true"/>
        <junctions.join-dist value="50"/>
    </junctions>

</configuration>
-->

<net version="1.16" junctionCornerDetail="5" limitTurnSpeed="5.50" xmlns:xsi="http://www.w3.org/2001/XMLSchema-instance" xsi:noNamespaceSchemaLocation="http://sumo.dlr.de/xsd/net_file.xsd">

    <location netOffset="-355253.90,-3460550.47" convBoundary="0.00,0.00,3027.31,2885.62" origBoundary="121.374970,31.195934,121.534287,31.336056" projParameter="+proj=utm +zone=51 +ellps=WGS84 +datum=WGS84 +units=m +no_defs"/>

    <type id="highway.primary" priority="12" numLanes="2" speed="27.78" disallow="tram rail_urban rail rail_electric rail_fast ship" oneway="0"/>

    <edge id=":10008544334_0" function="internal">
        <lane id=":10008544334_0_0" index="0" disallow="tram rail_urban rail rail_electric rail_fast ship" speed="27.78" length="0.10" shape="748.29,909.41 748.29,909.41"/>
        <lane id=":10008544334_0_1" index="1" disallow="tram rail_urban rail rail_electric rail_fast ship" speed="27.78" length="0.10" shape="748.16,906.21 748.16,906.21"/>
    </edge>
    <edge id=":10008544349_0" function="internal">
        <lane id=":10008544349_0_0" index="0" disallow="tram rail_urban rail rail_electric rail_fast ship" speed="27.78" length="0.10" shape="907.98,902.95 907.98,902.95"/>
        <lane id=":10008544349_0_1" index="1" disallow="tram rail_urban rail rail_electric rail_fast ship" speed="27.78" length="0.10" shape="907.84,899.75 907.84,899.75"/>
    </edge>
    <edge id=":10008544388_0" function="internal">
        <lane id=":10008544388_0_0" index="0" disallow="tram rail_urban rail rail_electric rail_fast ship" speed="27.78" length="0.10" shape="969.75,900.22 969.75,900.22"/>
        <lane id=":10008544388_0_1" index="1" disallow="tram rail_urban rail rail_electric rail_fast ship" speed="27.78" length="0.10" shape="969.61,897.02 969.61,897.02"/>
    </edge>
    <edge id=":10008544454_0" function="internal">
        <lane id=":10008544454_0_0" index="0" disallow="tram rail_urban rail rail_electric rail_fast ship" speed="27.78" length="0.10" shape="1152.68,892.91 1152.68,892.91"/>
        <lane id=":10008544454_0_1" index="1" disallow="tram rail_urban rail rail_electric rail_fast ship" speed="27.78" length="0.10" shape="1152.54,889.72 1152.54,889.72"/>
    </edge>
    <edge id=":10009236244_0" function="internal">
        <lane id=":10009236244_0_0" index="0" disallow="tram rail_urban rail rail_electric rail_fast ship" speed="27.78" length="0.30" shape="1015.43,898.20 1015.13,898.22"/>
        <lane id=":10009236244_0_1" index="1" disallow="tram rail_urban rail rail_electric rail_fast ship" speed="27.78" length="0.30" shape="1015.30,895.01 1014.99,895.02"/>
    </edge>
    <edge id=":10009236247_0" function="internal">
        <lane id=":10009236247_0_0" index="0" disallow="tram rail_urban rail rail_electric rail_fast ship" speed="27.78" length="0.10" shape="647.52,1275.66 647.52,1275.66"/>
        <lane id=":10009236247_0_1" index="1" disallow="tram rail_urban rail rail_electric rail_fast ship" speed="27.78" length="0.10" shape="644.32,1275.82 644.32,1275.82"/>
    </edge>
    <edge id=":10009236251_0" function="internal">
        <lane id=":10009236251_0_0" index="0" disallow="tram rail_urban rail rail_electric rail_fast ship" speed="27.78" length="0.10" shape="651.80,1363.88 651.80,1363.88"/>
        <lane id=":10009236251_0_1" index="1" disallow="tram rail_urban rail rail_electric rail_fast ship" speed="27.78" length="0.10" shape="648.60,1364.03 648.60,1364.03"/>
    </edge>
    <edge id=":10009264873_0" function="internal">
        <lane id=":10009264873_0_0" index="0" disallow="tram rail_urban rail rail_electric rail_fast ship" speed="27.78" length="0.10" shape="862.50,904.84 862.50,904.84"/>
        <lane id=":10009264873_0_1" index="1" disallow="tram rail_urban rail rail_electric rail_fast ship" speed="27.78" length="0.10" shape="862.37,901.64 862.37,901.64"/>
    </edge>
    <edge id=":10010989235_0" function="internal">
        <lane id=":10010989235_0_0" index="0" disallow="tram rail_urban rail rail_electric rail_fast ship" speed="27.78" length="0.30" shape="670.14,1755.39 670.15,1755.68"/>
        <lane id=":10010989235_0_1" index="1" disallow="tram rail_urban rail rail_electric rail_fast ship" speed="27.78" length="0.30" shape="666.94,1755.52 666.96,1755.83"/>
    </edge>
    <edge id=":10010989301_0" function="internal">
        <lane id=":10010989301_0_0" index="0" disallow="tram rail_urban rail rail_electric rail_fast ship" speed="27.78" length="0.10" shape="892.42,1913.75 892.42,1913.75"/>
        <lane id=":10010989301_0_1" index="1" disallow="tram rail_urban rail rail_electric rail_fast ship" speed="27.78" length="0.10" shape="892.44,1916.95 892.44,1916.95"/>
    </edge>
    <edge id=":10011080382_0" function="internal">
        <lane id=":10011080382_0_0" index="0" disallow="tram rail_urban rail rail_electric rail_fast ship" speed="27.78" length="0.30" shape="545.99,1915.89 546.29,1915.89"/>
        <lane id=":10011080382_0_1" index="1" disallow="tram rail_urban rail rail_electric rail_fast ship" speed="27.78" length="0.30" shape="546.01,1919.09 546.31,1919.09"/>
    </edge>
    <edge id=":10128164848_0" function="internal">
        <lane id=":10128164848_0_0" index="0" disallow="tram rail_urban rail rail_electric rail_fast ship" speed="27.78" length="3.07" shape="2132.30,1438.52 2131.11,1435.69"/>
        <lane id=":10128164848_0_1" index="1" disallow="tram rail_urban rail rail_electric rail_fast ship" speed="27.78" length="3.07" shape="2129.35,1439.76 2128.16,1436.93"/>
        <lane id=":10128164848_0_2" index="2" disallow="tram rail_urban rail rail_electric rail_fast ship" speed="27.78" length="3.07" shape="2126.40,1441.00 2125.21,1438.18"/>
        <lane id=":10128164848_0_3" index="3" disallow="tram rail_urban rail rail_electric rail_fast ship" speed="27.78" length="3.07" shape="2123.45,1442.25 2122.26,1439.42"/>
    </edge>
    <edge id=":10128184156_0" function="internal">
        <lane id=":10128184156_0_0" index="0" disallow="tram rail_urban rail rail_electric rail_fast ship" speed="27.78" length="0.30" shape="2077.47,1310.28 2077.60,1310.55"/>
        <lane id=":10128184156_0_1" index="1" disallow="tram rail_urban rail rail_electric rail_fast ship" speed="27.78" length="0.30" shape="2074.59,1311.68 2074.72,1311.95"/>
        <lane id=":10128184156_0_2" index="2" disallow="tram rail_urban rail rail_electric rail_fast ship" speed="27.78" length="0.30" shape="2071.72,1313.08 2071.85,1313.35"/>
        <lane id=":10128184156_0_3" index="3" disallow="tram rail_urban rail rail_electric rail_fast ship" speed="27.78" length="0.30" shape="2068.84,1314.49 2068.97,1314.75"/>
    </edge>
    <edge id=":10137811924_0" function="internal">
        <lane id=":10137811924_0_0" index="0" disallow="tram rail_urban rail rail_electric rail_fast ship" speed="27.78" length="0.10" shape="1889.68,931.30 1889.68,931.30"/>
        <lane id=":10137811924_0_1" index="1" disallow="tram rail_urban rail rail_electric rail_fast ship" speed="27.78" length="0.10" shape="1886.91,932.90 1886.91,932.90"/>
        <lane id=":10137811924_0_2" index="2" disallow="tram rail_urban rail rail_electric rail_fast ship" speed="27.78" length="0.10" shape="1884.14,934.51 1884.14,934.51"/>
        <lane id=":10137811924_0_3" index="3" disallow="tram rail_urban rail rail_electric rail_fast ship" speed="27.78" length="0.10" shape="1881.37,936.11 1881.37,936.11"/>
    </edge>
    <edge id=":10137811941_0" function="internal">
        <lane id=":10137811941_0_0" index="0" disallow="tram rail_urban rail rail_electric rail_fast ship" speed="27.78" length="0.30" shape="1758.91,773.67 1759.13,773.88"/>
        <lane id=":10137811941_0_1" index="1" disallow="tram rail_urban rail rail_electric rail_fast ship" speed="27.78" length="0.30" shape="1756.71,776.00 1756.93,776.21"/>
        <lane id=":10137811941_0_2" index="2" disallow="tram rail_urban rail rail_electric rail_fast ship" speed="27.78" length="0.30" shape="1754.51,778.32 1754.73,778.53"/>
        <lane id=":10137811941_0_3" index="3" disallow="tram rail_urban rail rail_electric rail_fast ship" speed="27.78" length="0.30" shape="1752.31,780.65 1752.53,780.85"/>
    </edge>
    <edge id=":10137811950_0" function="internal">
        <lane id=":10137811950_0_0" index="0" disallow="tram rail_urban rail rail_electric rail_fast ship" speed="27.78" length="0.30" shape="1787.57,801.23 1787.78,801.44"/>
        <lane id=":10137811950_0_1" index="1" disallow="tram rail_urban rail rail_electric rail_fast ship" speed="27.78" length="0.30" shape="1785.27,803.45 1785.48,803.67"/>
        <lane id=":10137811950_0_2" index="2" disallow="tram rail_urban rail rail_electric rail_fast ship" speed="27.78" length="0.30" shape="1782.97,805.67 1783.18,805.89"/>
        <lane id=":10137811950_0_3" index="3" disallow="tram rail_urban rail rail_electric rail_fast ship" speed="27.78" length="0.30" shape="1780.67,807.90 1780.88,808.12"/>
    </edge>
    <edge id=":10137812017_0" function="internal">
        <lane id=":10137812017_0_0" index="0" disallow="tram rail_urban rail rail_electric rail_fast ship" speed="27.78" length="0.10" shape="1828.35,555.89 1828.35,555.89"/>
        <lane id=":10137812017_0_1" index="1" disallow="tram rail_urban rail rail_electric rail_fast ship" speed="27.78" length="0.10" shape="1826.22,553.50 1826.22,553.50"/>
    </edge>
    <edge id=":10137845161_0" function="internal">
        <lane id=":10137845161_0_0" index="0" disallow="tram rail_urban rail rail_electric rail_fast ship" speed="27.78" length="0.10" shape="1973.11,1101.14 1973.11,1101.14"/>
        <lane id=":10137845161_0_1" index="1" disallow="tram rail_urban rail rail_electric rail_fast ship" speed="27.78" length="0.10" shape="1970.19,1102.47 1970.19,1102.47"/>
        <lane id=":10137845161_0_2" index="2" disallow="tram rail_urban rail rail_electric rail_fast ship" speed="27.78" length="0.10" shape="1967.28,1103.80 1967.28,1103.80"/>
        <lane id=":10137845161_0_3" index="3" disallow="tram rail_urban rail rail_electric rail_fast ship" speed="27.78" length="0.10" shape="1964.37,1105.13 1964.37,1105.13"/>
    </edge>
    <edge id=":10137845166_0" function="internal">
        <lane id=":10137845166_0_0" index="0" disallow="tram rail_urban rail rail_electric rail_fast ship" speed="27.78" length="0.30" shape="1938.62,1021.87 1938.70,1022.16"/>
        <lane id=":10137845166_0_1" index="1" disallow="tram rail_urban rail rail_electric rail_fast ship" speed="27.78" length="0.30" shape="1935.54,1022.73 1935.62,1023.02"/>
        <lane id=":10137845166_0_2" index="2" disallow="tram rail_urban rail rail_electric rail_fast ship" speed="27.78" length="0.30" shape="1932.46,1023.59 1932.54,1023.88"/>
        <lane id=":10137845166_0_3" index="3" disallow="tram rail_urban rail rail_electric rail_fast ship" speed="27.78" length="0.30" shape="1929.38,1024.45 1929.46,1024.74"/>
    </edge>
    <edge id=":10137845210_0" function="internal">
        <lane id=":10137845210_0_0" index="0" disallow="tram rail_urban rail rail_electric rail_fast ship" speed="27.78" length="0.30" shape="2000.05,1157.52 2000.19,1157.79"/>
        <lane id=":10137845210_0_1" index="1" disallow="tram rail_urban rail rail_electric rail_fast ship" speed="27.78" length="0.30" shape="1997.22,1159.02 1997.36,1159.28"/>
        <lane id=":10137845210_0_2" index="2" disallow="tram rail_urban rail rail_electric rail_fast ship" speed="27.78" length="0.30" shape="1994.39,1160.51 1994.53,1160.78"/>
        <lane id=":10137845210_0_3" index="3" disallow="tram rail_urban rail rail_electric rail_fast ship" speed="27.78" length="0.30" shape="1991.56,1162.00 1991.70,1162.27"/>
    </edge>
    <edge id=":10279705167_0" function="internal">
        <lane id=":10279705167_0_0" index="0" disallow="tram rail_urban rail rail_electric rail_fast ship" speed="27.78" length="0.30" shape="664.60,1623.71 664.62,1624.02"/>
        <lane id=":10279705167_0_1" index="1" disallow="tram rail_urban rail rail_electric rail_fast ship" speed="27.78" length="0.30" shape="661.40,1623.87 661.42,1624.15"/>
    </edge>
    <edge id=":10279705173_0" function="internal">
        <lane id=":10279705173_0_0" index="0" disallow="tram rail_urban rail rail_electric rail_fast ship" speed="27.78" length="0.30" shape="658.26,1784.54 658.25,1784.24"/>
        <lane id=":10279705173_0_1" index="1" disallow="tram rail_urban rail rail_electric rail_fast ship" speed="27.78" length="0.30" shape="661.46,1784.43 661.45,1784.14"/>
    </edge>
    <edge id=":10279713877_0" function="internal">
        <lane id=":10279713877_0_0" index="0" disallow="tram rail_urban rail rail_electric rail_fast ship" speed="27.78" length="0.10" shape="637.75,1056.20 637.75,1056.20"/>
        <lane id=":10279713877_0_1" index="1" disallow="tram rail_urban rail rail_electric rail_fast ship" speed="27.78" length="0.10" shape="634.55,1056.34 634.55,1056.34"/>
    </edge>
    <edge id=":10279718647_0" function="internal">
        <lane id=":10279718647_0_0" index="0" disallow="tram rail_urban rail rail_electric rail_fast ship" speed="27.78" length="0.25" shape="633.84,964.35 633.86,964.67"/>
        <lane id=":10279718647_0_1" index="1" disallow="tram rail_urban rail rail_electric rail_fast ship" speed="27.78" length="0.25" shape="630.65,964.62 630.66,964.80"/>
    </edge>
    <edge id=":10279718650_0" function="internal">
        <lane id=":10279718650_0_0" index="0" disallow="tram rail_urban rail rail_electric rail_fast ship" speed="27.78" length="0.10" shape="632.34,1348.14 632.34,1348.14"/>
        <lane id=":10279718650_0_1" index="1" disallow="tram rail_urban rail rail_electric rail_fast ship" speed="27.78" length="0.10" shape="635.53,1348.00 635.53,1348.00"/>
    </edge>
    <edge id=":10857789117_0" function="internal">
        <lane id=":10857789117_0_0" index="0" disallow="tram rail_urban rail rail_electric rail_fast ship" speed="27.78" length="0.10" shape="1761.81,619.66 1761.81,619.66"/>
        <lane id=":10857789117_0_1" index="1" disallow="tram rail_urban rail rail_electric rail_fast ship" speed="27.78" length="0.10" shape="1759.54,617.40 1759.55,617.40"/>
    </edge>
    <edge id=":1500354820_0" function="internal">
        <lane id=":1500354820_0_0" index="0" disallow="tram rail_urban rail rail_electric rail_fast ship" speed="27.78" length="0.30" shape="2105.87,1432.56 2105.73,1432.28"/>
        <lane id=":1500354820_0_1" index="1" disallow="tram rail_urban rail rail_electric rail_fast ship" speed="27.78" length="0.30" shape="2108.74,1431.16 2108.62,1430.91"/>
    </edge>
    <edge id=":1500354846_0" function="internal">
        <lane id=":1500354846_0_0" index="0" disallow="tram rail_urban rail rail_electric rail_fast ship" speed="27.78" length="0.10" shape="2117.42,1426.41 2117.42,1426.41"/>
        <lane id=":1500354846_0_1" index="1" disallow="tram rail_urban rail rail_electric rail_fast ship" speed="27.78" length="0.10" shape="2114.53,1427.78 2114.53,1427.78"/>
    </edge>
    <edge id=":1500354849_0" function="internal">
        <lane id=":1500354849_0_0" index="0" disallow="tram rail_urban rail rail_electric rail_fast ship" speed="27.78" length="0.26" shape="1801.86,833.09 1802.12,833.37"/>
        <lane id=":1500354849_0_1" index="1" disallow="tram rail_urban rail rail_electric rail_fast ship" speed="27.78" length="0.26" shape="1799.58,835.33 1799.67,835.43"/>
    </edge>
    <edge id=":1500354857_0" function="internal">
        <lane id=":1500354857_0_0" index="0" disallow="tram rail_urban rail rail_electric rail_fast ship" speed="27.78" length="9.49" shape="2451.12,2136.90 2451.40,2139.39 2451.72,2141.09 2452.29,2142.72 2453.29,2145.02"/>
        <lane id=":1500354857_0_1" index="1" disallow="tram rail_urban rail rail_electric rail_fast ship" speed="27.78" length="9.49" shape="2447.93,2137.23 2448.25,2140.02 2448.61,2141.92 2449.25,2143.75 2450.37,2146.33"/>
        <lane id=":1500354857_0_2" index="2" disallow="tram rail_urban rail rail_electric rail_fast ship" speed="27.78" length="9.49" shape="2444.75,2137.56 2445.10,2140.65 2445.50,2142.76 2446.21,2144.78 2447.45,2147.63"/>
    </edge>
    <edge id=":1500354857_3" function="internal">
        <lane id=":1500354857_3_0" index="0" disallow="tram rail_urban rail rail_electric rail_fast ship" speed="27.78" length="15.21" shape="2442.97,2132.67 2445.74,2136.36 2447.31,2139.11 2448.56,2142.05 2450.37,2146.33"/>
        <lane id=":1500354857_3_1" index="1" disallow="tram rail_urban rail rail_electric rail_fast ship" speed="27.78" length="15.21" shape="2440.48,2134.68 2443.09,2138.18 2444.57,2140.79 2445.74,2143.58 2447.45,2147.63"/>
    </edge>
    <edge id=":1500354861_0" function="internal">
        <lane id=":1500354861_0_0" index="0" disallow="tram rail_urban rail rail_electric rail_fast ship" speed="27.78" length="0.10" shape="1792.65,841.88 1792.71,841.95"/>
        <lane id=":1500354861_0_1" index="1" disallow="tram rail_urban rail rail_electric rail_fast ship" speed="27.78" length="0.10" shape="1795.04,839.75 1794.97,839.69"/>
    </edge>
    <edge id=":1500354880_0" function="internal">
        <lane id=":1500354880_0_0" index="0" disallow="tram rail_urban rail rail_electric rail_fast ship" speed="27.78" length="0.30" shape="1493.46,518.09 1493.67,518.31"/>
        <lane id=":1500354880_0_1" index="1" disallow="tram rail_urban rail rail_electric rail_fast ship" speed="27.78" length="0.30" shape="1491.16,520.32 1491.37,520.53"/>
    </edge>
    <edge id=":1500354888_0" function="internal">
        <lane id=":1500354888_0_0" index="0" disallow="tram rail_urban rail rail_electric rail_fast ship" speed="27.78" length="0.71" shape="1877.77,910.87 1877.99,911.17 1878.13,911.37 1878.26,911.59 1878.45,911.91"/>
        <lane id=":1500354888_0_1" index="1" disallow="tram rail_urban rail rail_electric rail_fast ship" speed="27.78" length="0.71" shape="1875.19,912.77 1875.35,912.98 1875.45,913.13 1875.55,913.28 1875.68,913.51"/>
        <lane id=":1500354888_0_2" index="2" disallow="tram rail_urban rail rail_electric rail_fast ship" speed="27.78" length="0.71" shape="1872.62,914.67 1872.71,914.80 1872.78,914.89 1872.83,914.98 1872.91,915.11"/>
        <lane id=":1500354888_0_3" index="3" disallow="tram rail_urban rail rail_electric rail_fast ship" speed="27.78" length="0.71" shape="1870.05,916.57 1870.08,916.61 1870.10,916.64 1870.12,916.67 1870.14,916.72"/>
    </edge>
    <edge id=":1500354906_0" function="internal">
        <lane id=":1500354906_0_0" index="0" disallow="tram rail_urban rail rail_electric rail_fast ship" speed="27.78" length="44.89" shape="1344.82,390.84 1315.19,357.23"/>
        <lane id=":1500354906_0_1" index="1" disallow="tram rail_urban rail rail_electric rail_fast ship" speed="27.78" length="44.89" shape="1347.22,388.73 1317.48,355.00"/>
    </edge>
    <edge id=":1500354906_2" function="internal">
        <lane id=":1500354906_2_0" index="0" disallow="tram rail_urban rail rail_electric rail_fast ship" speed="27.78" length="44.81" shape="1349.54,386.31 1315.19,357.23"/>
        <lane id=":1500354906_2_1" index="1" disallow="tram rail_urban rail rail_electric rail_fast ship" speed="27.78" length="44.81" shape="1351.55,383.81 1317.48,355.00"/>
    </edge>
    <edge id=":1500354909_0" function="internal">
        <lane id=":1500354909_0_0" index="0" disallow="tram rail_urban rail rail_electric rail_fast ship" speed="27.78" length="0.30" shape="1485.50,529.08 1485.29,528.85"/>
        <lane id=":1500354909_0_1" index="1" disallow="tram rail_urban rail rail_electric rail_fast ship" speed="27.78" length="0.30" shape="1487.79,526.84 1487.59,526.64"/>
    </edge>
    <edge id=":1500354963_0" function="internal">
        <lane id=":1500354963_0_0" index="0" disallow="tram rail_urban rail rail_electric rail_fast ship" speed="27.78" length="7.99" shape="1940.19,1027.45 1940.76,1029.53 1941.19,1030.94 1941.72,1032.31 1942.59,1034.27"/>
        <lane id=":1500354963_0_1" index="1" disallow="tram rail_urban rail rail_electric rail_fast ship" speed="27.78" length="7.99" shape="1937.10,1028.32 1937.72,1030.53 1938.18,1032.04 1938.75,1033.50 1939.68,1035.60"/>
        <lane id=":1500354963_0_2" index="2" disallow="tram rail_urban rail rail_electric rail_fast ship" speed="27.78" length="7.99" shape="1934.02,1029.18 1934.68,1031.53 1935.17,1033.14 1935.78,1034.70 1936.77,1036.93"/>
        <lane id=":1500354963_0_3" index="3" disallow="tram rail_urban rail rail_electric rail_fast ship" speed="27.78" length="7.99" shape="1930.94,1030.04 1931.64,1032.54 1932.16,1034.23 1932.81,1035.89 1933.86,1038.26"/>
    </edge>
    <edge id=":1500354963_4" function="internal">
        <lane id=":1500354963_4_0" index="0" disallow="tram rail_urban rail rail_electric rail_fast ship" speed="27.78" length="23.60" shape="1926.06,1015.59 1929.13,1021.05 1931.42,1025.44 1933.70,1030.23 1936.77,1036.93"/>
        <lane id=":1500354963_4_1" index="1" disallow="tram rail_urban rail rail_electric rail_fast ship" speed="27.78" length="23.60" shape="1923.47,1017.46 1926.89,1022.64 1929.06,1026.93 1931.03,1031.69 1933.86,1038.26"/>
    </edge>
    <edge id=":1500354977_0" function="internal">
        <lane id=":1500354977_0_0" index="0" disallow="tram rail_urban rail rail_electric rail_fast ship" speed="27.78" length="26.18" shape="2040.45,1237.76 2052.78,1260.71"/>
        <lane id=":1500354977_0_1" index="1" disallow="tram rail_urban rail rail_electric rail_fast ship" speed="27.78" length="26.18" shape="2037.59,1239.19 2049.95,1262.21"/>
        <lane id=":1500354977_0_2" index="2" disallow="tram rail_urban rail rail_electric rail_fast ship" speed="27.78" length="26.18" shape="2034.72,1240.62 2047.13,1263.71"/>
        <lane id=":1500354977_0_3" index="3" disallow="tram rail_urban rail rail_electric rail_fast ship" speed="27.78" length="26.18" shape="2031.86,1242.04 2044.30,1265.22"/>
    </edge>
    <edge id=":1500354977_4" function="internal">
        <lane id=":1500354977_4_0" index="0" disallow="tram rail_urban rail rail_electric rail_fast ship" speed="27.78" length="25.94" shape="2031.86,1242.04 2035.13,1249.45 2037.01,1255.12 2038.62,1260.30 2041.07,1266.27"/>
        <lane id=":1500354977_4_1" index="1" disallow="tram rail_urban rail rail_electric rail_fast ship" speed="27.78" length="25.52" shape="2031.86,1242.04 2034.56,1249.42 2035.30,1255.25 2035.79,1260.64 2037.73,1266.71"/>
    </edge>
    <edge id=":1500354998_0" function="internal">
        <lane id=":1500354998_0_0" index="0" disallow="tram rail_urban rail rail_electric rail_fast ship" speed="27.78" length="0.26" shape="2398.45,2032.59 2398.53,2032.78"/>
        <lane id=":1500354998_0_1" index="1" disallow="tram rail_urban rail rail_electric rail_fast ship" speed="27.78" length="0.26" shape="2395.49,2033.80 2395.60,2034.08"/>
    </edge>
    <edge id=":1500355026_0" function="internal">
        <lane id=":1500355026_0_0" index="0" disallow="tram rail_urban rail rail_electric rail_fast ship" speed="27.78" length="0.10" shape="2384.37,2036.70 2384.33,2036.61"/>
        <lane id=":1500355026_0_1" index="1" disallow="tram rail_urban rail rail_electric rail_fast ship" speed="27.78" length="0.10" shape="2387.26,2035.33 2387.30,2035.42"/>
    </edge>
    <edge id=":1723223134_0" function="internal">
        <lane id=":1723223134_0_0" index="0" disallow="tram rail_urban rail rail_electric rail_fast ship" speed="27.78" length="0.30" shape="467.23,1916.91 467.53,1916.90"/>
        <lane id=":1723223134_0_1" index="1" disallow="tram rail_urban rail rail_electric rail_fast ship" speed="27.78" length="0.30" shape="467.28,1920.11 467.58,1920.10"/>
    </edge>
    <edge id=":1871631750_0" function="internal">
        <lane id=":1871631750_0_0" index="0" disallow="tram rail_urban rail rail_electric rail_fast ship" speed="27.78" length="0.44" shape="2400.95,2015.57 2401.19,2016.10"/>
        <lane id=":1871631750_0_1" index="1" disallow="tram rail_urban rail rail_electric rail_fast ship" speed="27.78" length="0.44" shape="2398.07,2016.97 2398.25,2017.37"/>
        <lane id=":1871631750_0_2" index="2" disallow="tram rail_urban rail rail_electric rail_fast ship" speed="27.78" length="0.44" shape="2395.19,2018.36 2395.31,2018.63"/>
    </edge>
    <edge id=":1871631774_0" function="internal">
        <lane id=":1871631774_0_0" index="0" disallow="tram rail_urban rail rail_electric rail_fast ship" speed="16.67" length="0.30" shape="2372.68,2033.37 2372.55,2033.10"/>
        <lane id=":1871631774_0_1" index="1" disallow="tram rail_urban rail rail_electric rail_fast ship" speed="16.67" length="0.30" shape="2375.57,2032.00 2375.44,2031.73"/>
    </edge>
    <edge id=":1871659320_0" function="internal">
        <lane id=":1871659320_0_0" index="0" disallow="tram rail_urban rail rail_electric rail_fast ship" speed="27.78" length="0.26" shape="640.70,1543.12 640.68,1542.79"/>
        <lane id=":1871659320_0_1" index="1" disallow="tram rail_urban rail rail_electric rail_fast ship" speed="27.78" length="0.26" shape="643.89,1542.84 643.88,1542.65"/>
    </edge>
    <edge id=":1871659376_0" function="internal">
        <lane id=":1871659376_0_0" index="0" disallow="tram rail_urban rail rail_electric rail_fast ship" speed="27.78" length="0.24" shape="475.95,1937.78 475.77,1937.79"/>
        <lane id=":1871659376_0_1" index="1" disallow="tram rail_urban rail rail_electric rail_fast ship" speed="27.78" length="0.24" shape="475.94,1934.58 475.65,1934.59"/>
    </edge>
    <edge id=":1873506084_0" function="internal">
        <lane id=":1873506084_0_0" index="0" disallow="tram rail_urban rail rail_electric rail_fast ship" speed="27.78" length="0.25" shape="2917.55,1752.33 2917.25,1752.31"/>
        <lane id=":1873506084_0_1" index="1" disallow="tram rail_urban rail rail_electric rail_fast ship" speed="27.78" length="0.25" shape="2917.73,1749.14 2917.54,1749.12"/>
    </edge>
    <edge id=":1873553100_0" function="internal">
        <lane id=":1873553100_0_0" index="0" disallow="tram rail_urban rail rail_electric rail_fast ship" speed="27.78" length="0.31" shape="2214.95,1976.16 2215.24,1976.03"/>
        <lane id=":1873553100_0_1" index="1" disallow="tram rail_urban rail rail_electric rail_fast ship" speed="27.78" length="0.31" shape="2216.24,1979.09 2216.53,1978.96"/>
    </edge>
    <edge id=":1873590554_0" function="internal">
        <lane id=":1873590554_0_0" index="0" disallow="tram rail_urban rail rail_electric rail_fast ship" speed="27.78" length="0.10" shape="88.31,1943.05 88.22,1943.06"/>
        <lane id=":1873590554_0_1" index="1" disallow="tram rail_urban rail rail_electric rail_fast ship" speed="27.78" length="0.10" shape="87.91,1939.88 88.00,1939.87"/>
    </edge>
    <edge id=":1873590588_0" function="internal">
        <lane id=":1873590588_0_0" index="0" disallow="tram rail_urban rail rail_electric rail_fast ship" speed="27.78" length="0.31" shape="1554.66,2103.84 1554.52,2103.82 1554.43,2103.80 1554.34,2103.77 1554.21,2103.74"/>
        <lane id=":1873590588_0_1" index="1" disallow="tram rail_urban rail rail_electric rail_fast ship" speed="27.78" length="0.31" shape="1555.24,2100.69 1555.19,2100.69 1555.16,2100.68 1555.13,2100.67 1555.09,2100.66"/>
    </edge>
    <edge id=":1873590652_0" function="internal">
        <lane id=":1873590652_0_0" index="0" disallow="tram rail_urban rail rail_electric rail_fast ship" speed="27.78" length="0.21" shape="671.25,2109.29 671.25,2109.19"/>
        <lane id=":1873590652_0_1" index="1" disallow="tram rail_urban rail rail_electric rail_fast ship" speed="27.78" length="0.21" shape="674.45,2109.39 674.45,2109.08"/>
    </edge>
    <edge id=":1873590686_0" function="internal">
        <lane id=":1873590686_0_0" index="0" disallow="tram rail_urban rail rail_electric rail_fast ship" speed="27.78" length="0.30" shape="685.98,2096.55 685.98,2096.84"/>
        <lane id=":1873590686_0_1" index="1" disallow="tram rail_urban rail rail_electric rail_fast ship" speed="27.78" length="0.30" shape="682.78,2096.63 682.79,2096.94"/>
    </edge>
    <edge id=":1873599341_0" function="internal">
        <lane id=":1873599341_0_0" index="0" disallow="tram rail_urban rail rail_electric rail_fast ship" speed="27.78" length="0.30" shape="1643.12,2113.04 1642.82,2113.03"/>
        <lane id=":1873599341_0_1" index="1" disallow="tram rail_urban rail rail_electric rail_fast ship" speed="27.78" length="0.30" shape="1643.18,2109.84 1642.88,2109.83"/>
    </edge>
    <edge id=":1875155007_0" function="internal">
        <lane id=":1875155007_0_0" index="0" disallow="tram rail_urban rail rail_electric rail_fast ship" speed="27.78" length="0.27" shape="690.44,2246.36 690.45,2246.49"/>
        <lane id=":1875155007_0_1" index="1" disallow="tram rail_urban rail rail_electric rail_fast ship" speed="27.78" length="0.27" shape="687.24,2246.45 687.27,2246.86"/>
    </edge>
    <edge id=":1879882237_0" function="internal">
        <lane id=":1879882237_0_0" index="0" disallow="tram rail_urban rail rail_electric rail_fast ship" speed="27.78" length="7.85" shape="1335.26,342.73 1340.97,348.28"/>
        <lane id=":1879882237_0_1" index="1" disallow="tram rail_urban rail rail_electric rail_fast ship" speed="27.78" length="7.85" shape="1333.03,345.03 1338.69,350.52"/>