<?xml version="1.0" encoding="UTF-8"?>

<!-- generated on 2024-05-30 00:01:11 by Eclipse SUMO netconvert Version 1.19.0
<configuration xmlns:xsi="http://www.w3.org/2001/XMLSchema-instance" xsi:noNamespaceSchemaLocation="http://sumo.dlr.de/xsd/netconvertConfiguration.xsd">

    <input>
        <osm-files value="sumodata\tj.osm"/>
    </input>

    <output>
        <output-file value="sumodata\tj.net.xml"/>
    </output>

    <projection>
        <proj.utm value="true"/>
    </projection>

    <tls_building>
        <tls.discard-loaded value="true"/>
    </tls_building>

    <junctions>
        <junctions.join value="true"/>
        <junctions.join-dist value="50"/>
    </junctions>

</configuration>
-->

<net version="1.16" junctionCornerDetail="5" limitTurnSpeed="5.50" xmlns:xsi="http://www.w3.org/2001/XMLSchema-instance" xsi:noNamespaceSchemaLocation="http://sumo.dlr.de/xsd/net_file.xsd">

    <location netOffset="-353624.20,-3458475.75" convBoundary="0.00,0.00,6556.88,6394.54" origBoundary="121.462585,31.251367,121.531075,31.309783" projParameter="+proj=utm +zone=51 +ellps=WGS84 +datum=WGS84 +units=m +no_defs"/>

    <type id="highway.footway" priority="1" numLanes="1" speed="2.78" allow="pedestrian" oneway="1" width="2.00"/>
    <type id="highway.primary" priority="12" numLanes="2" speed="27.78" disallow="tram rail_urban rail rail_electric rail_fast ship" oneway="0"/>
    <type id="highway.residential" priority="3" numLanes="1" speed="13.89" disallow="tram rail_urban rail rail_electric rail_fast ship" oneway="0"/>
    <type id="highway.service" priority="1" numLanes="1" speed="5.56" allow="pedestrian delivery bicycle" oneway="0"/>
    <type id="highway.tertiary" priority="10" numLanes="1" speed="22.22" disallow="tram rail_urban rail rail_electric rail_fast ship" oneway="0"/>
    <type id="railway.subway" priority="18" numLanes="1" speed="27.78" allow="rail_urban" oneway="1"/>

    <edge id=":10008522416_0" function="internal">
        <lane id=":10008522416_0_0" index="0" allow="pedestrian delivery bicycle" speed="5.56" length="9.44" shape="2188.53,3148.45 2188.23,3139.02"/>
    </edge>
    <edge id=":10008522416_1" function="internal">
        <lane id=":10008522416_1_0" index="0" allow="pedestrian delivery bicycle" speed="5.56" length="10.18" shape="2188.53,3148.45 2188.83,3145.69 2189.95,3143.68 2191.88,3142.43 2194.63,3141.93"/>
    </edge>
    <edge id=":10008522416_2" function="internal">
        <lane id=":10008522416_2_0" index="0" allow="pedestrian delivery bicycle" speed="3.65" length="4.67" shape="2188.53,3148.45 2189.29,3147.23 2190.07,3146.80 2190.89,3147.17 2191.73,3148.34"/>
    </edge>
    <edge id=":10008522416_3" function="internal">
        <lane id=":10008522416_3_0" index="0" allow="pedestrian delivery bicycle" speed="5.05" length="5.03" shape="2194.75,3145.13 2193.39,3145.37 2192.43,3145.99 2191.88,3146.98 2191.73,3148.34"/>
    </edge>
    <edge id=":10008522416_4" function="internal">
        <lane id=":10008522416_4_0" index="0" allow="pedestrian delivery bicycle" speed="5.56" length="10.21" shape="2194.75,3145.13 2191.97,3144.83 2189.95,3143.72 2188.71,3141.78 2188.23,3139.02"/>
    </edge>
    <edge id=":10008522416_5" function="internal">
        <lane id=":10008522416_5_0" index="0" allow="pedestrian delivery bicycle" speed="3.65" length="4.67" shape="2194.75,3145.13 2193.52,3144.37 2193.09,3143.59 2193.46,3142.77 2194.63,3141.93"/>
    </edge>
    <edge id=":10008522416_6" function="internal">
        <lane id=":10008522416_6_0" index="0" allow="pedestrian delivery bicycle" speed="5.03" length="5.01" shape="2191.43,3138.93 2191.67,3140.29 2192.28,3141.24 2193.27,3141.79 2194.63,3141.93"/>
    </edge>
    <edge id=":10008522416_7" function="internal">
        <lane id=":10008522416_7_0" index="0" allow="pedestrian delivery bicycle" speed="5.56" length="9.41" shape="2191.43,3138.93 2191.73,3148.34"/>
    </edge>
    <edge id=":10008522416_8" function="internal">
        <lane id=":10008522416_8_0" index="0" allow="pedestrian delivery bicycle" speed="3.65" length="4.67" shape="2191.43,3138.93 2190.67,3140.15 2189.88,3140.58 2189.07,3140.20 2188.23,3139.02"/>
    </edge>
    <edge id=":10008544317_0" function="internal">
        <lane id=":10008544317_0_0" index="0" allow="pedestrian delivery bicycle" speed="3.65" length="4.67" shape="2214.94,3141.17 2216.16,3141.93 2216.59,3142.71 2216.22,3143.53 2215.05,3144.37"/>
    </edge>
    <edge id=":10008544319_0" function="internal">
        <lane id=":10008544319_0_0" index="0" allow="pedestrian delivery bicycle" speed="3.65" length="4.67" shape="2228.92,3089.56 2230.16,3090.30 2230.60,3091.08 2230.23,3091.90 2229.07,3092.76"/>
    </edge>
    <edge id=":10008544320_0" function="internal">
        <lane id=":10008544320_0_0" index="0" allow="pedestrian delivery bicycle" speed="5.03" length="5.01" shape="2187.09,3097.85 2186.86,3096.49 2186.24,3095.54 2185.25,3094.99 2183.89,3094.85"/>
    </edge>
    <edge id=":10008544320_1" function="internal">
        <lane id=":10008544320_1_0" index="0" allow="pedestrian delivery bicycle" speed="5.56" length="9.43" shape="2187.09,3097.85 2186.74,3088.42"/>
    </edge>
    <edge id=":10008544320_2" function="internal">
        <lane id=":10008544320_2_0" index="0" allow="pedestrian delivery bicycle" speed="5.56" length="10.20" shape="2187.09,3097.85 2187.40,3095.07 2188.52,3093.05 2190.45,3091.77 2193.18,3091.25"/>
    </edge>
    <edge id=":10008544320_3" function="internal">
        <lane id=":10008544320_3_0" index="0" allow="pedestrian delivery bicycle" speed="3.65" length="4.67" shape="2187.09,3097.85 2187.85,3096.62 2188.64,3096.20 2189.45,3096.58 2190.29,3097.76"/>
    </edge>
    <edge id=":10008544320_4" function="internal">
        <lane id=":10008544320_4_0" index="0" allow="pedestrian delivery bicycle" speed="5.12" length="5.11" shape="2193.33,3094.44 2191.97,3094.71 2191.00,3095.35 2190.44,3096.36 2190.29,3097.76"/>
    </edge>
    <edge id=":10008544320_5" function="internal">
        <lane id=":10008544320_5_0" index="0" allow="pedestrian delivery bicycle" speed="5.56" length="9.45" shape="2193.33,3094.44 2183.89,3094.85"/>
    </edge>
    <edge id=":10008544320_6" function="internal">
        <lane id=":10008544320_6_0" index="0" allow="pedestrian delivery bicycle" speed="5.56" length="10.18" shape="2193.33,3094.44 2190.56,3094.18 2188.53,3093.09 2187.26,3091.17 2186.74,3088.42"/>
    </edge>
    <edge id=":10008544320_7" function="internal">
        <lane id=":10008544320_7_0" index="0" allow="pedestrian delivery bicycle" speed="3.65" length="4.67" shape="2193.33,3094.44 2192.09,3093.70 2191.66,3092.92 2192.02,3092.10 2193.18,3091.25"/>
    </edge>
    <edge id=":10008544320_8" function="internal">
        <lane id=":10008544320_8_0" index="0" allow="pedestrian delivery bicycle" speed="5.05" length="5.02" shape="2189.94,3088.28 2190.19,3089.63 2190.82,3090.58 2191.81,3091.12 2193.18,3091.25"/>
    </edge>
    <edge id=":10008544320_9" function="internal">
        <lane id=":10008544320_9_0" index="0" allow="pedestrian delivery bicycle" speed="5.56" length="9.49" shape="2189.94,3088.28 2190.29,3097.76"/>
    </edge>
    <edge id=":10008544320_10" function="internal">
        <lane id=":10008544320_10_0" index="0" allow="pedestrian delivery bicycle" speed="5.56" length="10.21" shape="2189.94,3088.28 2189.67,3091.06 2188.57,3093.08 2186.64,3094.35 2183.89,3094.85"/>
    </edge>
    <edge id=":10008544320_11" function="internal">
        <lane id=":10008544320_11_0" index="0" allow="pedestrian delivery bicycle" speed="3.65" length="4.67" shape="2189.94,3088.28 2189.19,3089.51 2188.41,3089.95 2187.60,3089.59 2186.74,3088.42"/>
    </edge>
    <edge id=":10008544320_12" function="internal">
        <lane id=":10008544320_12_0" index="0" allow="pedestrian delivery bicycle" speed="5.04" length="5.02" shape="2183.76,3091.65 2185.12,3091.41 2186.07,3090.79 2186.61,3089.79 2186.74,3088.42"/>
    </edge>
    <edge id=":10008544320_13" function="internal">
        <lane id=":10008544320_13_0" index="0" allow="pedestrian delivery bicycle" speed="5.56" length="9.43" shape="2183.76,3091.65 2193.18,3091.25"/>
    </edge>
    <edge id=":10008544320_14" function="internal">
        <lane id=":10008544320_14_0" index="0" allow="pedestrian delivery bicycle" speed="5.56" length="10.22" shape="2183.76,3091.65 2186.55,3091.94 2188.57,3093.06 2189.81,3094.99 2190.29,3097.76"/>
    </edge>
    <edge id=":10008544320_15" function="internal">
        <lane id=":10008544320_15_0" index="0" allow="pedestrian delivery bicycle" speed="3.65" length="4.67" shape="2183.76,3091.65 2184.99,3092.41 2185.42,3093.19 2185.05,3094.00 2183.89,3094.85"/>
    </edge>
    <edge id=":10008544321_0" function="internal">
        <lane id=":10008544321_0_0" index="0" allow="pedestrian delivery bicycle" speed="3.65" length="4.67" shape="2142.19,3096.48 2140.96,3095.73 2140.52,3094.94 2140.89,3094.13 2142.06,3093.28"/>
    </edge>
    <edge id=":10008544322_0" function="internal">
        <lane id=":10008544322_0_0" index="0" allow="pedestrian delivery bicycle" speed="5.09" length="5.06" shape="2183.72,3022.73 2183.46,3021.39 2182.82,3020.45 2181.81,3019.91 2180.41,3019.76"/>
    </edge>
    <edge id=":10008544322_1" function="internal">
        <lane id=":10008544322_1_0" index="0" allow="pedestrian delivery bicycle" speed="5.56" length="9.40" shape="2183.72,3022.73 2183.29,3013.34"/>
    </edge>
    <edge id=":10008544322_2" function="internal">
        <lane id=":10008544322_2_0" index="0" allow="pedestrian delivery bicycle" speed="3.65" length="4.67" shape="2183.72,3022.73 2184.47,3021.50 2185.25,3021.06 2186.07,3021.42 2186.92,3022.58"/>
    </edge>
    <edge id=":10008544322_3" function="internal">
        <lane id=":10008544322_3_0" index="0" allow="pedestrian delivery bicycle" speed="5.56" length="9.40" shape="2186.49,3013.20 2186.92,3022.58"/>
    </edge>
    <edge id=":10008544322_4" function="internal">
        <lane id=":10008544322_4_0" index="0" allow="pedestrian delivery bicycle" speed="5.56" length="10.23" shape="2186.49,3013.20 2186.22,3015.99 2185.11,3018.02 2183.18,3019.27 2180.41,3019.76"/>
    </edge>
    <edge id=":10008544322_5" function="internal">
        <lane id=":10008544322_5_0" index="0" allow="pedestrian delivery bicycle" speed="3.65" length="4.67" shape="2186.49,3013.20 2185.74,3014.43 2184.96,3014.87 2184.15,3014.50 2183.29,3013.34"/>
    </edge>
    <edge id=":10008544322_6" function="internal">
        <lane id=":10008544322_6_0" index="0" allow="pedestrian delivery bicycle" speed="5.02" length="5.02" shape="2180.31,3016.56 2181.67,3016.32 2182.62,3015.71 2183.16,3014.71 2183.29,3013.34"/>
    </edge>
    <edge id=":10008544322_7" function="internal">
        <lane id=":10008544322_7_0" index="0" allow="pedestrian delivery bicycle" speed="5.56" length="10.16" shape="2180.31,3016.56 2183.09,3016.86 2185.12,3017.97 2186.40,3019.88 2186.92,3022.58"/>
    </edge>
    <edge id=":10008544322_8" function="internal">
        <lane id=":10008544322_8_0" index="0" allow="pedestrian delivery bicycle" speed="3.65" length="4.67" shape="2180.31,3016.56 2181.54,3017.32 2181.96,3018.11 2181.58,3018.92 2180.41,3019.76"/>
    </edge>
    <edge id=":10008544323_0" function="internal">
        <lane id=":10008544323_0_0" index="0" allow="pedestrian delivery bicycle" speed="3.65" length="4.67" shape="2105.73,3022.06 2104.50,3021.29 2104.08,3020.51 2104.45,3019.69 2105.63,3018.86"/>
    </edge>
    <edge id=":10008544324_0" function="internal">
        <lane id=":10008544324_0_0" index="0" allow="pedestrian delivery bicycle" speed="5.08" length="5.04" shape="2184.68,3043.53 2184.42,3042.19 2183.79,3041.25 2182.78,3040.71 2181.39,3040.56"/>
    </edge>
    <edge id=":10008544324_1" function="internal">
        <lane id=":10008544324_1_0" index="0" allow="pedestrian delivery bicycle" speed="5.56" length="9.40" shape="2184.68,3043.53 2184.25,3034.14"/>
    </edge>
    <edge id=":10008544324_2" function="internal">
        <lane id=":10008544324_2_0" index="0" allow="pedestrian delivery bicycle" speed="3.65" length="4.67" shape="2184.68,3043.53 2185.43,3042.30 2186.21,3041.86 2187.03,3042.22 2187.88,3043.39"/>
    </edge>
    <edge id=":10008544324_3" function="internal">
        <lane id=":10008544324_3_0" index="0" allow="pedestrian delivery bicycle" speed="5.56" length="9.40" shape="2187.45,3033.99 2187.88,3043.39"/>
    </edge>
    <edge id=":10008544324_4" function="internal">
        <lane id=":10008544324_4_0" index="0" allow="pedestrian delivery bicycle" speed="5.56" length="10.21" shape="2187.45,3033.99 2187.18,3036.78 2186.08,3038.81 2184.15,3040.07 2181.39,3040.56"/>
    </edge>
    <edge id=":10008544324_5" function="internal">
        <lane id=":10008544324_5_0" index="0" allow="pedestrian delivery bicycle" speed="3.65" length="4.67" shape="2187.45,3033.99 2186.70,3035.23 2185.92,3035.67 2185.11,3035.30 2184.25,3034.14"/>
    </edge>
    <edge id=":10008544324_6" function="internal">
        <lane id=":10008544324_6_0" index="0" allow="pedestrian delivery bicycle" speed="5.03" length="5.01" shape="2181.28,3037.37 2182.63,3037.12 2183.58,3036.51 2184.12,3035.51 2184.25,3034.14"/>
    </edge>
    <edge id=":10008544324_7" function="internal">
        <lane id=":10008544324_7_0" index="0" allow="pedestrian delivery bicycle" speed="5.56" length="10.16" shape="2181.28,3037.37 2184.06,3037.66 2186.09,3038.76 2187.36,3040.67 2187.88,3043.39"/>
    </edge>
    <edge id=":10008544324_8" function="internal">
        <lane id=":10008544324_8_0" index="0" allow="pedestrian delivery bicycle" speed="3.65" length="4.67" shape="2181.28,3037.37 2182.51,3038.12 2182.93,3038.91 2182.56,3039.72 2181.39,3040.56"/>
    </edge>
    <edge id=":10008544325_0" function="internal">
        <lane id=":10008544325_0_0" index="0" allow="pedestrian delivery bicycle" speed="3.65" length="4.67" shape="2114.15,3042.94 2112.93,3042.18 2112.50,3041.40 2112.87,3040.58 2114.04,3039.74"/>
    </edge>
    <edge id=":10008544326_0" function="internal">
        <lane id=":10008544326_0_0" index="0" allow="pedestrian delivery bicycle" speed="5.04" length="5.00" shape="2185.94,3070.91 2185.68,3069.57 2185.06,3068.63 2184.06,3068.09 2182.70,3067.96"/>
    </edge>
    <edge id=":10008544326_1" function="internal">
        <lane id=":10008544326_1_0" index="0" allow="pedestrian delivery bicycle" speed="5.56" length="9.40" shape="2185.94,3070.91 2185.51,3061.52"/>
    </edge>
    <edge id=":10008544326_2" function="internal">
        <lane id=":10008544326_2_0" index="0" allow="pedestrian delivery bicycle" speed="3.65" length="4.67" shape="2185.94,3070.91 2186.68,3069.68 2187.46,3069.24 2188.28,3069.60 2189.13,3070.77"/>
    </edge>
    <edge id=":10008544326_3" function="internal">
        <lane id=":10008544326_3_0" index="0" allow="pedestrian delivery bicycle" speed="5.56" length="9.40" shape="2188.70,3061.38 2189.13,3070.77"/>
    </edge>
    <edge id=":10008544326_4" function="internal">
        <lane id=":10008544326_4_0" index="0" allow="pedestrian delivery bicycle" speed="5.56" length="10.16" shape="2188.70,3061.38 2188.44,3064.15 2187.35,3066.17 2185.43,3067.44 2182.70,3067.96"/>
    </edge>
    <edge id=":10008544326_5" function="internal">
        <lane id=":10008544326_5_0" index="0" allow="pedestrian delivery bicycle" speed="3.65" length="4.67" shape="2188.70,3061.38 2187.96,3062.61 2187.18,3063.05 2186.36,3062.68 2185.51,3061.52"/>
    </edge>
    <edge id=":10008544326_6" function="internal">
        <lane id=":10008544326_6_0" index="0" allow="pedestrian delivery bicycle" speed="5.04" length="5.00" shape="2182.55,3064.76 2183.90,3064.51 2184.84,3063.88 2185.37,3062.89 2185.51,3061.52"/>
    </edge>
    <edge id=":10008544326_7" function="internal">
        <lane id=":10008544326_7_0" index="0" allow="pedestrian delivery bicycle" speed="5.56" length="10.16" shape="2182.55,3064.76 2185.32,3065.03 2187.34,3066.12 2188.61,3068.03 2189.13,3070.77"/>
    </edge>
    <edge id=":10008544326_8" function="internal">
        <lane id=":10008544326_8_0" index="0" allow="pedestrian delivery bicycle" speed="3.65" length="4.67" shape="2182.55,3064.76 2183.79,3065.50 2184.22,3066.29 2183.86,3067.10 2182.70,3067.96"/>
    </edge>
    <edge id=":10008544327_0" function="internal">
        <lane id=":10008544327_0_0" index="0" allow="pedestrian delivery bicycle" speed="3.65" length="4.67" shape="2127.52,3070.49 2126.28,3069.75 2125.85,3068.97 2126.21,3068.15 2127.37,3067.30"/>
    </edge>
    <edge id=":10008544328_0" function="internal">
        <lane id=":10008544328_0_0" index="0" allow="pedestrian delivery bicycle" speed="3.65" length="4.67" shape="2420.89,3257.29 2420.15,3258.53 2419.37,3258.97 2418.55,3258.61 2417.69,3257.45"/>
    </edge>
    <edge id=":10008544331_0" function="internal">
        <lane id=":10008544331_0_0" index="0" allow="pedestrian delivery bicycle" speed="5.56" length="6.98" shape="2395.68,3081.34 2394.85,3080.38 2393.52,3079.71 2391.68,3079.33 2389.34,3079.23"/>
    </edge>
    <edge id=":10008544331_1" function="internal">
        <lane id=":10008544331_1_0" index="0" allow="pedestrian delivery bicycle" speed="5.56" length="9.80" shape="2395.68,3081.34 2394.36,3078.75 2393.51,3076.94 2392.75,3075.10 2391.65,3072.41"/>
    </edge>
    <edge id=":10008544331_2" function="internal">
        <lane id=":10008544331_2_0" index="0" allow="pedestrian delivery bicycle" speed="3.65" length="4.67" shape="2395.68,3081.34 2395.83,3079.90 2396.36,3079.17 2397.25,3079.16 2398.52,3079.85"/>
    </edge>
    <edge id=":10008544331_3" function="internal">
        <lane id=":10008544331_3_0" index="0" allow="pedestrian delivery bicycle" speed="5.56" length="9.51" shape="2394.61,3071.19 2395.67,3073.80 2396.41,3075.59 2397.23,3077.34 2398.52,3079.85"/>
    </edge>
    <edge id=":10008544331_4" function="internal">
        <lane id=":10008544331_4_0" index="0" allow="pedestrian delivery bicycle" speed="5.56" length="12.26" shape="2394.61,3071.19 2395.50,3074.65 2394.91,3077.14 2392.86,3078.67 2389.34,3079.23"/>
    </edge>
    <edge id=":10008544331_5" function="internal">
        <lane id=":10008544331_5_0" index="0" allow="pedestrian delivery bicycle" speed="3.65" length="4.67" shape="2394.61,3071.19 2394.33,3072.60 2393.74,3073.28 2392.85,3073.21 2391.65,3072.41"/>
    </edge>
    <edge id=":10008544331_6" function="internal">
        <lane id=":10008544331_6_0" index="0" allow="pedestrian delivery bicycle" speed="4.74" length="5.52" shape="2389.27,3076.03 2390.86,3075.78 2391.79,3075.09 2392.05,3073.97 2391.65,3072.41"/>
    </edge>
    <edge id=":10008544331_7" function="internal">
        <lane id=":10008544331_7_0" index="0" allow="pedestrian delivery bicycle" speed="5.56" length="10.51" shape="2389.27,3076.03 2392.54,3076.22 2395.17,3076.92 2397.16,3078.13 2398.52,3079.85"/>
    </edge>
    <edge id=":10008544331_8" function="internal">
        <lane id=":10008544331_8_0" index="0" allow="pedestrian delivery bicycle" speed="3.65" length="4.67" shape="2389.27,3076.03 2390.49,3076.81 2390.91,3077.60 2390.52,3078.41 2389.34,3079.23"/>
    </edge>
    <edge id=":10008544334_0" function="internal">
        <lane id=":10008544334_0_0" index="0" allow="pedestrian delivery bicycle" speed="5.09" length="5.06" shape="2376.59,2987.36 2376.32,2985.98 2375.69,2985.01 2374.70,2984.46 2373.34,2984.31"/>
    </edge>
    <edge id=":10008544334_1" function="internal">
        <lane id=":10008544334_1_0" index="0" allow="pedestrian delivery bicycle" speed="5.02" length="5.02" shape="2382.74,2983.94 2381.38,2984.19 2380.44,2984.81 2379.91,2985.81 2379.79,2987.18"/>
    </edge>
    <edge id=":10008544334_2" function="internal">
        <lane id=":10008544334_2_0" index="0" disallow="tram rail_urban rail rail_electric rail_fast ship" speed="27.78" length="9.40" shape="2382.74,2983.94 2373.34,2984.31"/>
        <lane id=":10008544334_2_1" index="1" disallow="tram rail_urban rail rail_electric rail_fast ship" speed="27.78" length="9.40" shape="2382.61,2980.74 2373.21,2981.11"/>
    </edge>
    <edge id=":10008544335_0" function="internal">
        <lane id=":10008544335_0_0" index="0" allow="pedestrian delivery bicycle" speed="3.65" length="4.67" shape="2358.47,3259.44 2357.72,3260.67 2356.93,3261.10 2356.12,3260.73 2355.27,3259.56"/>
    </edge>
    <edge id=":10008544336_0" function="internal">
        <lane id=":10008544336_0_0" index="0" allow="pedestrian delivery bicycle" speed="5.08" length="5.03" shape="2351.54,3162.98 2351.30,3161.61 2350.68,3160.64 2349.70,3160.08 2348.35,3159.91"/>
    </edge>
    <edge id=":10008544336_1" function="internal">
        <lane id=":10008544336_1_0" index="0" allow="pedestrian delivery bicycle" speed="5.56" length="10.18" shape="2351.54,3162.98 2351.83,3160.20 2352.94,3158.19 2354.87,3156.94 2357.61,3156.44"/>
    </edge>
    <edge id=":10008544336_2" function="internal">
        <lane id=":10008544336_2_0" index="0" allow="pedestrian delivery bicycle" speed="3.65" length="4.67" shape="2351.54,3162.98 2352.30,3161.75 2353.08,3161.32 2353.90,3161.69 2354.74,3162.85"/>
    </edge>
    <edge id=":10008544336_3" function="internal">
        <lane id=":10008544336_3_0" index="0" allow="pedestrian delivery bicycle" speed="5.04" length="5.00" shape="2357.72,3159.64 2356.37,3159.88 2355.43,3160.50 2354.88,3161.49 2354.74,3162.85"/>
    </edge>
    <edge id=":10008544336_4" function="internal">
        <lane id=":10008544336_4_0" index="0" allow="pedestrian delivery bicycle" speed="5.56" length="9.38" shape="2357.72,3159.64 2348.35,3159.91"/>
    </edge>
    <edge id=":10008544336_5" function="internal">
        <lane id=":10008544336_5_0" index="0" allow="pedestrian delivery bicycle" speed="3.65" length="4.67" shape="2357.72,3159.64 2356.50,3158.88 2356.07,3158.10 2356.44,3157.28 2357.61,3156.44"/>
    </edge>
    <edge id=":10008544336_6" function="internal">
        <lane id=":10008544336_6_0" index="0" allow="pedestrian delivery bicycle" speed="5.56" length="9.34" shape="2348.28,3156.71 2357.61,3156.44"/>
    </edge>
    <edge id=":10008544336_7" function="internal">
        <lane id=":10008544336_7_0" index="0" allow="pedestrian delivery bicycle" speed="5.56" length="10.13" shape="2348.28,3156.71 2351.01,3157.05 2353.00,3158.18 2354.25,3160.11 2354.74,3162.85"/>
    </edge>
    <edge id=":10008544336_8" function="internal">
        <lane id=":10008544336_8_0" index="0" allow="pedestrian delivery bicycle" speed="3.65" length="4.67" shape="2348.28,3156.71 2349.49,3157.49 2349.91,3158.28 2349.53,3159.09 2348.35,3159.91"/>
    </edge>
    <edge id=":10008544337_0" function="internal">
        <lane id=":10008544337_0_0" index="0" allow="pedestrian delivery bicycle" speed="5.10" length="5.07" shape="2412.60,3160.76 2412.33,3159.43 2411.68,3158.49 2410.65,3157.95 2409.25,3157.81"/>
    </edge>
    <edge id=":10008544337_1" function="internal">
        <lane id=":10008544337_1_0" index="0" allow="pedestrian delivery bicycle" speed="5.56" length="9.40" shape="2412.60,3160.76 2412.10,3151.38"/>
    </edge>
    <edge id=":10008544337_2" function="internal">
        <lane id=":10008544337_2_0" index="0" allow="pedestrian delivery bicycle" speed="3.65" length="4.67" shape="2412.60,3160.76 2413.33,3159.52 2414.11,3159.08 2414.93,3159.44 2415.79,3160.59"/>
    </edge>
    <edge id=":10008544337_3" function="internal">
        <lane id=":10008544337_3_0" index="0" allow="pedestrian delivery bicycle" speed="5.56" length="9.40" shape="2415.30,3151.21 2415.79,3160.59"/>
    </edge>
    <edge id=":10008544337_4" function="internal">
        <lane id=":10008544337_4_0" index="0" allow="pedestrian delivery bicycle" speed="5.56" length="10.25" shape="2415.30,3151.21 2415.04,3154.01 2413.95,3156.05 2412.02,3157.31 2409.25,3157.81"/>
    </edge>
    <edge id=":10008544337_5" function="internal">
        <lane id=":10008544337_5_0" index="0" allow="pedestrian delivery bicycle" speed="3.65" length="4.67" shape="2415.30,3151.21 2414.56,3152.45 2413.78,3152.89 2412.96,3152.53 2412.10,3151.38"/>
    </edge>
    <edge id=":10008544337_6" function="internal">
        <lane id=":10008544337_6_0" index="0" allow="pedestrian delivery bicycle" speed="5.02" length="5.02" shape="2409.14,3154.61 2410.50,3154.37 2411.44,3153.75 2411.98,3152.75 2412.10,3151.38"/>
    </edge>
    <edge id=":10008544337_7" function="internal">
        <lane id=":10008544337_7_0" index="0" allow="pedestrian delivery bicycle" speed="5.56" length="10.16" shape="2409.14,3154.61 2411.93,3154.90 2413.96,3156.00 2415.25,3157.89 2415.79,3160.59"/>
    </edge>
    <edge id=":10008544337_8" function="internal">
        <lane id=":10008544337_8_0" index="0" allow="pedestrian delivery bicycle" speed="3.65" length="4.67" shape="2409.14,3154.61 2410.37,3155.37 2410.79,3156.15 2410.42,3156.97 2409.25,3157.81"/>
    </edge>
    <edge id=":10008544345_0" function="internal">
        <lane id=":10008544345_0_0" index="0" allow="pedestrian delivery bicycle" speed="5.56" length="6.66" shape="2431.37,3119.14 2429.69,3118.18 2428.39,3117.81 2426.99,3117.79 2425.02,3117.91"/>
    </edge>
    <edge id=":10008544345_1" function="internal">
        <lane id=":10008544345_1_0" index="0" allow="pedestrian delivery bicycle" speed="5.56" length="8.77" shape="2431.37,3119.14 2429.88,3117.84 2428.79,3116.14 2428.10,3114.02 2427.82,3111.49"/>
    </edge>
    <edge id=":10008544345_2" function="internal">
        <lane id=":10008544345_2_0" index="0" allow="pedestrian delivery bicycle" speed="3.65" length="4.67" shape="2431.37,3119.14 2430.80,3117.82 2430.89,3116.93 2431.66,3116.47 2433.10,3116.45"/>
    </edge>
    <edge id=":10008544345_3" function="internal">
        <lane id=":10008544345_3_0" index="0" allow="pedestrian delivery bicycle" speed="5.56" length="5.67" shape="2431.02,3111.39 2431.19,3113.13 2431.60,3114.55 2432.23,3115.66 2433.10,3116.45"/>
    </edge>
    <edge id=":10008544345_4" function="internal">
        <lane id=":10008544345_4_0" index="0" allow="pedestrian delivery bicycle" speed="5.56" length="10.05" shape="2431.02,3111.39 2430.71,3114.12 2429.61,3116.12 2427.71,3117.38 2425.02,3117.91"/>
    </edge>
    <edge id=":10008544345_5" function="internal">
        <lane id=":10008544345_5_0" index="0" allow="pedestrian delivery bicycle" speed="3.65" length="4.67" shape="2431.02,3111.39 2430.25,3112.62 2429.47,3113.04 2428.65,3112.67 2427.82,3111.49"/>
    </edge>
    <edge id=":10008544345_6" function="internal">
        <lane id=":10008544345_6_0" index="0" allow="pedestrian delivery bicycle" speed="5.07" length="4.97" shape="2424.85,3114.72 2426.18,3114.45 2427.12,3113.83 2427.67,3112.84 2427.82,3111.49"/>
    </edge>
    <edge id=":10008544345_7" function="internal">
        <lane id=":10008544345_7_0" index="0" allow="pedestrian delivery bicycle" speed="5.56" length="8.68" shape="2424.85,3114.72 2427.42,3114.57 2429.23,3114.64 2430.91,3115.18 2433.10,3116.45"/>
    </edge>
    <edge id=":10008544345_8" function="internal">
        <lane id=":10008544345_8_0" index="0" allow="pedestrian delivery bicycle" speed="3.65" length="4.67" shape="2424.85,3114.72 2426.09,3115.45 2426.53,3116.23 2426.17,3117.05 2425.02,3117.91"/>
    </edge>
    <edge id=":10008544349_0" function="internal">
        <lane id=":10008544349_0_0" index="0" allow="pedestrian delivery bicycle" speed="5.04" length="5.00" shape="2536.21,2980.84 2535.96,2979.49 2535.34,2978.55 2534.34,2978.01 2532.98,2977.88"/>
    </edge>
    <edge id=":10008544349_1" function="internal">
        <lane id=":10008544349_1_0" index="0" allow="pedestrian delivery bicycle" speed="3.65" length="4.67" shape="2536.21,2980.84 2536.96,2979.61 2537.74,2979.17 2538.56,2979.54 2539.41,2980.71"/>
    </edge>
    <edge id=":10008544349_2" function="internal">
        <lane id=":10008544349_2_0" index="0" allow="pedestrian delivery bicycle" speed="5.05" length="5.01" shape="2542.37,2977.46 2541.02,2977.72 2540.08,2978.34 2539.54,2979.34 2539.41,2980.71"/>
    </edge>
    <edge id=":10008544349_3" function="internal">
        <lane id=":10008544349_3_0" index="0" disallow="tram rail_urban rail rail_electric rail_fast ship" speed="27.78" length="9.40" shape="2542.37,2977.46 2532.98,2977.88"/>
        <lane id=":10008544349_3_1" index="1" disallow="tram rail_urban rail rail_electric rail_fast ship" speed="27.78" length="9.40" shape="2542.23,2974.27 2532.84,2974.68"/>
    </edge>
    <edge id=":10008544350_0" function="internal">
        <lane id=":10008544350_0_0" index="0" allow="pedestrian delivery bicycle" speed="5.56" length="9.42" shape="2410.54,3121.78 2410.43,3118.98 2410.32,3117.05 2409.94,3115.18 2409.03,3112.56"/>
    </edge>
    <edge id=":10008544350_1" function="internal">
        <lane id=":10008544350_1_0" index="0" allow="pedestrian delivery bicycle" speed="5.56" length="10.16" shape="2410.54,3121.78 2410.79,3119.01 2411.86,3116.98 2413.77,3115.69 2416.50,3115.16"/>
    </edge>
    <edge id=":10008544350_2" function="internal">
        <lane id=":10008544350_2_0" index="0" allow="pedestrian delivery bicycle" speed="3.65" length="4.67" shape="2410.54,3121.78 2411.27,3120.54 2412.05,3120.10 2412.87,3120.45 2413.73,3121.61"/>
    </edge>
    <edge id=":10008544350_3" function="internal">
        <lane id=":10008544350_3_0" index="0" allow="pedestrian delivery bicycle" speed="5.04" length="5.00" shape="2416.67,3118.35 2415.32,3118.62 2414.39,3119.25 2413.86,3120.25 2413.73,3121.61"/>
    </edge>
    <edge id=":10008544350_4" function="internal">
        <lane id=":10008544350_4_0" index="0" allow="pedestrian delivery bicycle" speed="5.56" length="10.32" shape="2416.67,3118.35 2414.20,3118.09 2412.10,3117.04 2410.38,3115.20 2409.03,3112.56"/>
    </edge>
    <edge id=":10008544350_5" function="internal">