<?xml version="1.0" encoding="UTF-8"?>

<!-- generated on 2024-05-29 16:18:39 by Eclipse SUMO netconvert Version 1.19.0
<configuration xmlns:xsi="http://www.w3.org/2001/XMLSchema-instance" xsi:noNamespaceSchemaLocation="http://sumo.dlr.de/xsd/netconvertConfiguration.xsd">

    <input>
        <osm-files value="sumodata/tj.osm"/>
    </input>

    <output>
        <output-file value="sumodata/tj.net.xml"/>
    </output>

    <projection>
        <proj.utm value="true"/>
    </projection>

    <edge_removal>
        <keep-edges.by-type value="highway.primary"/>
    </edge_removal>

    <junctions>
        <junctions.join value="true"/>
        <junctions.join-dist value="50"/>
    </junctions>

</configuration>
-->

<net version="1.16" junctionCornerDetail="5" limitTurnSpeed="5.50" xmlns:xsi="http://www.w3.org/2001/XMLSchema-instance" xsi:noNamespaceSchemaLocation="http://sumo.dlr.de/xsd/net_file.xsd">

    <location netOffset="-355410.33,-3460550.47" convBoundary="0.00,0.00,1511.06,1202.10" origBoundary="121.462585,31.251367,121.531075,31.309783" projParameter="+proj=utm +zone=51 +ellps=WGS84 +datum=WGS84 +units=m +no_defs"/>

    <type id="highway.primary" priority="12" numLanes="2" speed="27.78" disallow="tram rail_urban rail rail_electric rail_fast ship" oneway="0"/>

    <edge id=":10008544334_0" function="internal">
        <lane id=":10008544334_0_0" index="0" disallow="tram rail_urban rail rail_electric rail_fast ship" speed="27.78" length="0.10" shape="591.86,909.41 591.86,909.41"/>
        <lane id=":10008544334_0_1" index="1" disallow="tram rail_urban rail rail_electric rail_fast ship" speed="27.78" length="0.10" shape="591.73,906.21 591.73,906.21"/>
    </edge>
    <edge id=":10008544349_0" function="internal">
        <lane id=":10008544349_0_0" index="0" disallow="tram rail_urban rail rail_electric rail_fast ship" speed="27.78" length="0.10" shape="751.55,902.95 751.55,902.95"/>
        <lane id=":10008544349_0_1" index="1" disallow="tram rail_urban rail rail_electric rail_fast ship" speed="27.78" length="0.10" shape="751.41,899.75 751.41,899.75"/>
    </edge>
    <edge id=":10009264873_0" function="internal">
        <lane id=":10009264873_0_0" index="0" disallow="tram rail_urban rail rail_electric rail_fast ship" speed="27.78" length="0.10" shape="706.07,904.84 706.07,904.84"/>
        <lane id=":10009264873_0_1" index="1" disallow="tram rail_urban rail rail_electric rail_fast ship" speed="27.78" length="0.10" shape="705.94,901.64 705.94,901.64"/>
    </edge>
    <edge id=":10279713877_0" function="internal">
        <lane id=":10279713877_0_0" index="0" disallow="tram rail_urban rail rail_electric rail_fast ship" speed="27.78" length="0.10" shape="481.32,1056.20 481.32,1056.20"/>
        <lane id=":10279713877_0_1" index="1" disallow="tram rail_urban rail rail_electric rail_fast ship" speed="27.78" length="0.10" shape="478.12,1056.34 478.12,1056.34"/>
    </edge>
    <edge id=":10279718647_0" function="internal">
        <lane id=":10279718647_0_0" index="0" disallow="tram rail_urban rail rail_electric rail_fast ship" speed="27.78" length="0.25" shape="477.41,964.35 477.43,964.67"/>
        <lane id=":10279718647_0_1" index="1" disallow="tram rail_urban rail rail_electric rail_fast ship" speed="27.78" length="0.25" shape="474.22,964.62 474.23,964.80"/>
    </edge>
    <edge id=":265747570_0" function="internal">
        <lane id=":265747570_0_0" index="0" disallow="tram rail_urban rail rail_electric rail_fast ship" speed="27.78" length="0.49" shape="481.24,674.79 481.21,674.86 481.19,674.91 481.18,674.96 481.17,675.03"/>
        <lane id=":265747570_0_1" index="1" disallow="tram rail_urban rail rail_electric rail_fast ship" speed="27.78" length="0.49" shape="478.24,673.67 478.16,673.87 478.12,674.01 478.08,674.16 478.04,674.37"/>
    </edge>
    <edge id=":5621621484_0" function="internal">
        <lane id=":5621621484_0_0" index="0" disallow="tram rail_urban rail rail_electric rail_fast ship" speed="27.78" length="0.10" shape="95.62,903.42 95.62,903.42"/>
        <lane id=":5621621484_0_1" index="1" disallow="tram rail_urban rail rail_electric rail_fast ship" speed="27.78" length="0.10" shape="96.69,900.40 96.69,900.40"/>
    </edge>
    <edge id=":564280423_0" function="internal">
        <lane id=":564280423_0_0" index="0" disallow="tram rail_urban rail rail_electric rail_fast ship" speed="27.78" length="0.39" shape="466.25,671.34 466.29,671.16 466.32,671.05 466.35,670.93 466.41,670.77"/>
        <lane id=":564280423_0_1" index="1" disallow="tram rail_urban rail rail_electric rail_fast ship" speed="27.78" length="0.39" shape="469.39,671.99 469.40,671.94 469.41,671.90 469.42,671.86 469.44,671.80"/>
    </edge>
    <edge id=":829477310_0" function="internal">
        <lane id=":829477310_0_0" index="0" disallow="tram rail_urban rail rail_electric rail_fast ship" speed="27.78" length="0.10" shape="60.86,877.09 60.86,877.09"/>
        <lane id=":829477310_0_1" index="1" disallow="tram rail_urban rail rail_electric rail_fast ship" speed="27.78" length="0.10" shape="59.79,880.11 59.79,880.11"/>
    </edge>
    <edge id=":829477313_0" function="internal">
        <lane id=":829477313_0_0" index="0" disallow="tram rail_urban rail rail_electric rail_fast ship" speed="27.78" length="0.21" shape="107.73,892.06 107.83,892.08"/>
        <lane id=":829477313_0_1" index="1" disallow="tram rail_urban rail rail_electric rail_fast ship" speed="27.78" length="0.21" shape="106.87,895.14 107.19,895.22"/>
    </edge>
    <edge id=":829488282_0" function="internal">
        <lane id=":829488282_0_0" index="0" disallow="tram rail_urban rail rail_electric rail_fast ship" speed="27.78" length="0.36" shape="108.55,907.98 108.39,907.94 108.29,907.91 108.19,907.88 108.04,907.83"/>
        <lane id=":829488282_0_1" index="1" disallow="tram rail_urban rail rail_electric rail_fast ship" speed="27.78" length="0.36" shape="109.28,904.86 109.23,904.85 109.19,904.84 109.16,904.83 109.11,904.81"/>
    </edge>
    <edge id=":829488315_0" function="internal">
        <lane id=":829488315_0_0" index="0" disallow="tram rail_urban rail rail_electric rail_fast ship" speed="27.78" length="0.23" shape="55.95,889.32 55.68,889.22"/>
        <lane id=":829488315_0_1" index="1" disallow="tram rail_urban rail rail_electric rail_fast ship" speed="27.78" length="0.23" shape="57.02,886.31 56.86,886.25"/>
    </edge>
    <edge id=":9808358322_0" function="internal">
        <lane id=":9808358322_0_0" index="0" disallow="tram rail_urban rail rail_electric rail_fast ship" speed="27.78" length="0.30" shape="397.80,915.83 397.51,915.83"/>
        <lane id=":9808358322_0_1" index="1" disallow="tram rail_urban rail rail_electric rail_fast ship" speed="27.78" length="0.30" shape="397.78,912.63 397.48,912.63"/>
    </edge>
    <edge id=":9809236489_0" function="internal">
        <lane id=":9809236489_0_0" index="0" disallow="tram rail_urban rail rail_electric rail_fast ship" speed="27.78" length="0.30" shape="240.59,917.20 240.29,917.20"/>
        <lane id=":9809236489_0_1" index="1" disallow="tram rail_urban rail rail_electric rail_fast ship" speed="27.78" length="0.30" shape="240.58,914.00 240.28,914.00"/>
    </edge>
    <edge id=":9809380668_0" function="internal">
        <lane id=":9809380668_0_0" index="0" disallow="tram rail_urban rail rail_electric rail_fast ship" speed="27.78" length="0.30" shape="189.11,899.80 189.41,899.81"/>
        <lane id=":9809380668_0_1" index="1" disallow="tram rail_urban rail rail_electric rail_fast ship" speed="27.78" length="0.30" shape="189.07,903.00 189.37,903.01"/>
    </edge>
    <edge id=":9809380684_0" function="internal">
        <lane id=":9809380684_0_0" index="0" disallow="tram rail_urban rail rail_electric rail_fast ship" speed="27.78" length="0.30" shape="286.62,899.27 286.91,899.27"/>
        <lane id=":9809380684_0_1" index="1" disallow="tram rail_urban rail rail_electric rail_fast ship" speed="27.78" length="0.30" shape="286.65,902.47 286.96,902.47"/>
    </edge>
    <edge id=":cluster_265745257_829487525_829488048_829488081_0" function="internal">
        <lane id=":cluster_265745257_829487525_829488048_829488081_0_0" index="0" disallow="tram rail_urban rail rail_electric rail_fast ship" speed="7.07" length="10.38" shape="455.94,921.31 455.34,918.73 453.96,916.90 451.78,915.81 448.81,915.46"/>
    </edge>
    <edge id=":cluster_265745257_829487525_829488048_829488081_1" function="internal">
        <lane id=":cluster_265745257_829487525_829488048_829488081_1_0" index="0" disallow="tram rail_urban rail rail_electric rail_fast ship" speed="27.78" length="29.95" shape="455.94,921.31 454.12,891.34"/>
        <lane id=":cluster_265745257_829487525_829488048_829488081_1_1" index="1" disallow="tram rail_urban rail rail_electric rail_fast ship" speed="27.78" length="29.95" shape="459.12,921.04 457.31,891.22"/>
    </edge>
    <edge id=":cluster_265745257_829487525_829488048_829488081_3" function="internal">
        <lane id=":cluster_265745257_829487525_829488048_829488081_3_0" index="0" disallow="tram rail_urban rail rail_electric rail_fast ship" speed="11.40" length="18.74" shape="459.12,921.04 460.61,914.08 465.11,907.38 467.86,905.14"/>
    </edge>
    <edge id=":cluster_265745257_829487525_829488048_829488081_4" function="internal">
        <lane id=":cluster_265745257_829487525_829488048_829488081_4_0" index="0" disallow="tram rail_urban rail rail_electric rail_fast ship" speed="6.02" length="13.18" shape="459.12,921.04 461.58,916.57 464.29,914.92 467.23,916.08 468.32,917.45"/>
    </edge>
    <edge id=":cluster_265745257_829487525_829488048_829488081_20" function="internal">
        <lane id=":cluster_265745257_829487525_829488048_829488081_20_0" index="0" disallow="tram rail_urban rail rail_electric rail_fast ship" speed="11.40" length="11.69" shape="467.86,905.14 471.38,902.27 478.19,900.08"/>
    </edge>
    <edge id=":cluster_265745257_829487525_829488048_829488081_21" function="internal">
        <lane id=":cluster_265745257_829487525_829488048_829488081_21_0" index="0" disallow="tram rail_urban rail rail_electric rail_fast ship" speed="6.02" length="3.36" shape="468.32,917.45 470.41,920.08"/>
    </edge>
    <edge id=":cluster_265745257_829487525_829488048_829488081_5" function="internal">
        <lane id=":cluster_265745257_829487525_829488048_829488081_5_0" index="0" disallow="tram rail_urban rail rail_electric rail_fast ship" speed="6.41" length="9.03" shape="478.78,913.92 476.33,914.38 474.65,915.51 473.74,917.32 473.60,919.80"/>
    </edge>
    <edge id=":cluster_265745257_829487525_829488048_829488081_6" function="internal">
        <lane id=":cluster_265745257_829487525_829488048_829488081_6_0" index="0" disallow="tram rail_urban rail rail_electric rail_fast ship" speed="27.78" length="29.96" shape="478.78,913.92 448.81,915.46"/>
        <lane id=":cluster_265745257_829487525_829488048_829488081_6_1" index="1" disallow="tram rail_urban rail rail_electric rail_fast ship" speed="27.78" length="29.96" shape="478.65,910.73 448.78,912.26"/>
    </edge>
    <edge id=":cluster_265745257_829487525_829488048_829488081_8" function="internal">
        <lane id=":cluster_265745257_829487525_829488048_829488081_8_0" index="0" disallow="tram rail_urban rail rail_electric rail_fast ship" speed="11.58" length="30.93" shape="478.65,910.73 471.61,909.08 464.77,904.44 459.53,898.07 457.31,891.22"/>
    </edge>
    <edge id=":cluster_265745257_829487525_829488048_829488081_9" function="internal">
        <lane id=":cluster_265745257_829487525_829488048_829488081_9_0" index="0" disallow="tram rail_urban rail rail_electric rail_fast ship" speed="5.84" length="15.56" shape="478.65,910.73 474.54,908.24 473.10,905.63 474.31,902.91 478.19,900.08"/>
    </edge>
    <edge id=":cluster_265745257_829487525_829488048_829488081_10" function="internal">
        <lane id=":cluster_265745257_829487525_829488048_829488081_10_0" index="0" disallow="tram rail_urban rail rail_electric rail_fast ship" speed="6.87" length="10.01" shape="471.75,890.70 472.31,893.50 473.55,895.47 475.46,896.59 478.06,896.89"/>
    </edge>
    <edge id=":cluster_265745257_829487525_829488048_829488081_11" function="internal">
        <lane id=":cluster_265745257_829487525_829488048_829488081_11_0" index="0" disallow="tram rail_urban rail rail_electric rail_fast ship" speed="27.78" length="29.24" shape="471.75,890.70 473.60,919.80"/>
        <lane id=":cluster_265745257_829487525_829488048_829488081_11_1" index="1" disallow="tram rail_urban rail rail_electric rail_fast ship" speed="27.78" length="29.24" shape="468.55,890.82 470.41,920.08"/>
    </edge>
    <edge id=":cluster_265745257_829487525_829488048_829488081_13" function="internal">
        <lane id=":cluster_265745257_829487525_829488048_829488081_13_0" index="0" disallow="tram rail_urban rail rail_electric rail_fast ship" speed="11.41" length="18.71" shape="468.55,890.82 466.97,897.90 462.23,904.84 459.86,906.76"/>
    </edge>
    <edge id=":cluster_265745257_829487525_829488048_829488081_14" function="internal">
        <lane id=":cluster_265745257_829487525_829488048_829488081_14_0" index="0" disallow="tram rail_urban rail rail_electric rail_fast ship" speed="6.01" length="13.00" shape="468.55,890.82 465.90,895.14 463.14,896.64 460.28,895.34 459.32,894.01"/>
    </edge>
    <edge id=":cluster_265745257_829487525_829488048_829488081_22" function="internal">
        <lane id=":cluster_265745257_829487525_829488048_829488081_22_0" index="0" disallow="tram rail_urban rail rail_electric rail_fast ship" speed="11.41" length="12.59" shape="459.86,906.76 455.71,910.13 448.78,912.26"/>
    </edge>
    <edge id=":cluster_265745257_829487525_829488048_829488081_23" function="internal">
        <lane id=":cluster_265745257_829487525_829488048_829488081_23_0" index="0" disallow="tram rail_urban rail rail_electric rail_fast ship" speed="6.01" length="3.43" shape="459.32,894.01 457.31,891.22"/>
    </edge>
    <edge id=":cluster_265745257_829487525_829488048_829488081_15" function="internal">
        <lane id=":cluster_265745257_829487525_829488048_829488081_15_0" index="0" disallow="tram rail_urban rail rail_electric rail_fast ship" speed="6.46" length="9.04" shape="448.67,897.05 451.13,896.66 452.86,895.58 453.85,893.81 454.12,891.34"/>
    </edge>
    <edge id=":cluster_265745257_829487525_829488048_829488081_16" function="internal">
        <lane id=":cluster_265745257_829487525_829488048_829488081_16_0" index="0" disallow="tram rail_urban rail rail_electric rail_fast ship" speed="27.78" length="29.44" shape="448.67,897.05 478.06,896.89"/>
        <lane id=":cluster_265745257_829487525_829488048_829488081_16_1" index="1" disallow="tram rail_urban rail rail_electric rail_fast ship" speed="27.78" length="29.44" shape="448.70,900.25 478.19,900.08"/>
    </edge>
    <edge id=":cluster_265745257_829487525_829488048_829488081_18" function="internal">
        <lane id=":cluster_265745257_829487525_829488048_829488081_18_0" index="0" disallow="tram rail_urban rail rail_electric rail_fast ship" speed="11.97" length="31.25" shape="448.70,900.25 455.73,902.05 462.60,906.80 467.95,913.22 470.41,920.08"/>
    </edge>
    <edge id=":cluster_265745257_829487525_829488048_829488081_19" function="internal">
        <lane id=":cluster_265745257_829487525_829488048_829488081_19_0" index="0" disallow="tram rail_urban rail rail_electric rail_fast ship" speed="6.16" length="17.54" shape="448.70,900.25 453.22,903.22 454.75,906.21 453.27,909.23 448.78,912.26"/>
    </edge>

    <edge id="1078939193" from="265746698" to="829477310" priority="12" type="highway.primary" spreadType="center" shape="3.26,853.89 35.50,869.82 60.33,878.60">
        <lane id="1078939193_0" index="0" disallow="tram rail_urban rail rail_electric rail_fast ship" speed="27.78" length="62.29" shape="3.97,852.46 36.12,868.34 60.86,877.09"/>
        <lane id="1078939193_1" index="1" disallow="tram rail_urban rail rail_electric rail_fast ship" speed="27.78" length="62.29" shape="2.56,855.33 34.87,871.29 59.79,880.11"/>
    </edge>
    <edge id="1078939194#1" from="cluster_265745257_829487525_829488048_829488081" to="10279718647" priority="12" type="highway.primary" spreadType="center" shape="471.38,912.62 475.83,964.61">
        <lane id="1078939194#1_0" index="0" disallow="tram rail_urban rail rail_electric rail_fast ship" speed="27.78" length="44.71" shape="473.60,919.80 477.41,964.35"/>
        <lane id="1078939194#1_1" index="1" disallow="tram rail_urban rail rail_electric rail_fast ship" speed="27.78" length="44.71" shape="470.41,920.08 474.22,964.62"/>
    </edge>
    <edge id="1078939194#2" from="10279718647" to="10279713877" priority="12" type="highway.primary" spreadType="center">
        <lane id="1078939194#2_0" index="0" disallow="tram rail_urban rail rail_electric rail_fast ship" speed="27.78" length="91.61" shape="477.43,964.67 481.32,1056.20"/>
        <lane id="1078939194#2_1" index="1" disallow="tram rail_urban rail rail_electric rail_fast ship" speed="27.78" length="91.61" shape="474.23,964.80 478.12,1056.34"/>
    </edge>
    <edge id="1078939194#3" from="10279713877" to="265747573" priority="12" type="highway.primary" spreadType="center">
        <lane id="1078939194#3_0" index="0" disallow="tram rail_urban rail rail_electric rail_fast ship" speed="27.78" length="144.77" shape="481.32,1056.20 487.46,1200.84"/>
        <lane id="1078939194#3_1" index="1" disallow="tram rail_urban rail rail_electric rail_fast ship" speed="27.78" length="144.77" shape="478.12,1056.34 484.27,1200.98"/>
    </edge>
    <edge id="1078939195" from="cluster_265745257_829487525_829488048_829488081" to="829487679" priority="12" type="highway.primary" spreadType="center" shape="470.69,898.80 671.21,890.25 732.71,886.73">
        <lane id="1078939195_0" index="0" disallow="tram rail_urban rail rail_electric rail_fast ship" speed="27.78" length="254.86" shape="478.06,896.89 671.13,888.66 732.62,885.13"/>
        <lane id="1078939195_1" index="1" disallow="tram rail_urban rail rail_electric rail_fast ship" speed="27.78" length="254.86" shape="478.19,900.08 671.29,891.85 732.80,888.33"/>
    </edge>
    <edge id="1078939204" from="564280346" to="cluster_265745257_829487525_829488048_829488081" priority="12" type="highway.primary" spreadType="center" shape="469.16,1202.10 463.30,1008.96 457.05,913.80">
        <lane id="1078939204_0" index="0" disallow="tram rail_urban rail rail_electric rail_fast ship" speed="27.78" length="281.21" shape="467.56,1202.15 461.70,1009.04 455.94,921.31"/>
        <lane id="1078939204_1" index="1" disallow="tram rail_urban rail rail_electric rail_fast ship" speed="27.78" length="281.21" shape="470.76,1202.06 464.90,1008.89 459.12,921.04"/>
    </edge>
    <edge id="1078939205" from="cluster_265745257_829487525_829488048_829488081" to="9808358322" priority="12" type="highway.primary" spreadType="center" shape="457.05,913.80 397.64,914.23">
        <lane id="1078939205_0" index="0" disallow="tram rail_urban rail rail_electric rail_fast ship" speed="27.78" length="51.00" shape="448.81,915.46 397.80,915.83"/>
        <lane id="1078939205_1" index="1" disallow="tram rail_urban rail rail_electric rail_fast ship" speed="27.78" length="51.00" shape="448.78,912.26 397.78,912.63"/>
    </edge>
    <edge id="1078939206" from="829488315" to="829489640" priority="12" type="highway.primary" spreadType="center" shape="56.38,887.78 30.83,877.61 0.00,861.62">
        <lane id="1078939206_0" index="0" disallow="tram rail_urban rail rail_electric rail_fast ship" speed="27.78" length="62.11" shape="55.68,889.22 30.17,879.06 -0.74,863.04"/>
        <lane id="1078939206_1" index="1" disallow="tram rail_urban rail rail_electric rail_fast ship" speed="27.78" length="62.11" shape="56.86,886.25 31.50,876.15 0.74,860.20"/>
    </edge>
    <edge id="1092843298#0" from="9808358322" to="9809236489" priority="12" type="highway.primary" spreadType="center" shape="397.64,914.23 254.95,915.55 240.43,915.60">
        <lane id="1092843298#0_0" index="0" disallow="tram rail_urban rail rail_electric rail_fast ship" speed="27.78" length="156.92" shape="397.51,915.83 254.97,917.15 240.59,917.20"/>
        <lane id="1092843298#0_1" index="1" disallow="tram rail_urban rail rail_electric rail_fast ship" speed="27.78" length="156.92" shape="397.48,912.63 254.94,913.95 240.58,914.00"/>
    </edge>
    <edge id="1092843298#1" from="9809236489" to="829488282" priority="12" type="highway.primary" spreadType="center" shape="240.43,915.60 212.98,915.73 149.73,915.97 108.74,906.38">
        <lane id="1092843298#1_0" index="0" disallow="tram rail_urban rail rail_electric rail_fast ship" speed="27.78" length="132.47" shape="240.29,917.20 212.99,917.33 149.55,917.57 108.55,907.98"/>
        <lane id="1092843298#1_1" index="1" disallow="tram rail_urban rail rail_electric rail_fast ship" speed="27.78" length="132.47" shape="240.28,914.00 212.98,914.13 149.91,914.37 109.28,904.86"/>
    </edge>
    <edge id="1092843304#0" from="10008544334" to="cluster_265745257_829487525_829488048_829488081" priority="12" type="highway.primary" spreadType="center" shape="591.80,907.81 471.38,912.62">
        <lane id="1092843304#0_0" index="0" disallow="tram rail_urban rail rail_electric rail_fast ship" speed="27.78" length="113.17" shape="591.86,909.41 478.78,913.92"/>
        <lane id="1092843304#0_1" index="1" disallow="tram rail_urban rail rail_electric rail_fast ship" speed="27.78" length="113.17" shape="591.73,906.21 478.65,910.73"/>
    </edge>
    <edge id="24450885#0" from="265747567" to="265747570" priority="12" type="highway.primary" spreadType="center" shape="650.11,337.61 601.57,429.92 534.65,556.34 493.27,638.24 479.65,674.46">
        <lane id="24450885#0_0" index="0" disallow="tram rail_urban rail rail_electric rail_fast ship" speed="27.78" length="377.55" shape="651.53,338.35 602.98,430.66 536.07,557.07 494.73,638.88 481.24,674.79"/>
        <lane id="24450885#0_1" index="1" disallow="tram rail_urban rail rail_electric rail_fast ship" speed="27.78" length="377.55" shape="648.70,336.86 600.15,429.17 533.23,555.60 491.80,637.60 478.24,673.67"/>
    </edge>
    <edge id="24450885#1" from="265747570" to="cluster_265745257_829487525_829488048_829488081" priority="12" type="highway.primary" spreadType="center" shape="479.65,674.46 463.75,750.07 464.53,806.99 470.69,898.80">
        <lane id="24450885#1_0" index="0" disallow="tram rail_urban rail rail_electric rail_fast ship" speed="27.78" length="217.91" shape="481.17,675.03 465.35,750.22 466.13,806.92 471.75,890.70"/>
        <lane id="24450885#1_1" index="1" disallow="tram rail_urban rail rail_electric rail_fast ship" speed="27.78" length="217.91" shape="478.04,674.37 462.15,749.91 462.93,807.05 468.55,890.82"/>
    </edge>
    <edge id="39692894#0" from="829484298" to="10008544349" priority="12" type="highway.primary" spreadType="center" shape="1511.06,718.82 1461.86,770.62 1366.94,835.62 1336.02,852.71 1314.07,863.37 1289.76,872.25 1276.02,876.15 1208.69,883.17 1153.25,885.23 1109.18,886.88 1052.29,889.01 996.18,891.32 927.40,894.15 860.04,896.56 858.78,896.61 813.25,898.62 751.48,901.35">
        <lane id="39692894#0_0" index="0" disallow="tram rail_urban rail rail_electric rail_fast ship" speed="27.78" length="811.65" shape="1512.22,719.92 1462.90,771.85 1367.78,836.98 1336.76,854.13 1314.69,864.85 1290.26,873.77 1276.32,877.73 1208.80,884.77 1153.31,886.83 1109.24,888.48 1052.36,890.61 996.25,892.91 927.47,895.75 860.10,898.16 858.85,898.21 813.32,900.22 751.55,902.95"/>
        <lane id="39692894#0_1" index="1" disallow="tram rail_urban rail rail_electric rail_fast ship" speed="27.78" length="811.65" shape="1509.90,717.72 1460.82,769.40 1366.09,834.26 1335.28,851.28 1313.44,861.90 1289.27,870.73 1275.72,874.58 1208.58,881.57 1153.19,883.64 1109.12,885.28 1052.23,887.41 996.12,889.72 927.34,892.55 859.98,894.96 858.72,895.01 813.18,897.02 751.41,899.75"/>
    </edge>
    <edge id="39692894#1" from="10008544349" to="10009264873" priority="12" type="highway.primary" spreadType="center" shape="751.48,901.35 733.94,902.12 706.01,903.24">
        <lane id="39692894#1_0" index="0" disallow="tram rail_urban rail rail_electric rail_fast ship" speed="27.78" length="45.51" shape="751.55,902.95 734.01,903.72 706.07,904.84"/>
        <lane id="39692894#1_1" index="1" disallow="tram rail_urban rail rail_electric rail_fast ship" speed="27.78" length="45.51" shape="751.41,899.75 733.87,900.52 705.94,901.64"/>
    </edge>
    <edge id="39692894#2" from="10009264873" to="10008544334" priority="12" type="highway.primary" spreadType="center">
        <lane id="39692894#2_0" index="0" disallow="tram rail_urban rail rail_electric rail_fast ship" speed="27.78" length="114.30" shape="706.07,904.84 591.86,909.41"/>
        <lane id="39692894#2_1" index="1" disallow="tram rail_urban rail rail_electric rail_fast ship" speed="27.78" length="114.30" shape="705.94,901.64 591.73,906.21"/>
    </edge>
    <edge id="428147193#1" from="cluster_265745257_829487525_829488048_829488081" to="564280423" priority="12" type="highway.primary" spreadType="center" shape="455.98,898.55 452.18,793.60 452.46,755.37 456.93,723.59 467.86,671.47">
        <lane id="428147193#1_0" index="0" disallow="tram rail_urban rail rail_electric rail_fast ship" speed="27.78" length="221.13" shape="454.12,891.34 450.58,793.62 450.86,755.25 455.35,723.31 466.25,671.34"/>
        <lane id="428147193#1_1" index="1" disallow="tram rail_urban rail rail_electric rail_fast ship" speed="27.78" length="221.13" shape="457.31,891.22 453.78,793.57 454.06,755.48 458.51,723.86 469.39,671.99"/>
    </edge>
    <edge id="428147193#2" from="564280423" to="564280935" priority="12" type="highway.primary" spreadType="center" shape="467.86,671.47 472.78,657.09 493.77,609.22 610.60,398.81 641.87,331.87 684.29,241.72 763.06,88.92 783.82,45.73 808.18,0.00">
        <lane id="428147193#2_0" index="0" disallow="tram rail_urban rail rail_electric rail_fast ship" speed="27.78" length="753.10" shape="466.41,670.77 471.28,656.51 492.34,608.51 609.18,398.08 640.42,331.19 682.85,241.01 761.63,88.21 782.40,45.01 806.76,-0.75"/>
        <lane id="428147193#2_1" index="1" disallow="tram rail_urban rail rail_electric rail_fast ship" speed="27.78" length="753.10" shape="469.44,671.80 474.27,657.67 495.21,609.93 612.03,399.53 643.32,332.55 685.73,242.42 764.50,89.64 785.25,46.46 809.59,0.75"/>
    </edge>
    <edge id="69152604" from="829477310" to="829477313" priority="12" type="highway.primary" spreadType="center" shape="60.33,878.60 86.41,887.82 96.65,890.65 107.40,893.63">
        <lane id="69152604_0" index="0" disallow="tram rail_urban rail rail_electric rail_fast ship" speed="27.78" length="49.34" shape="60.86,877.09 86.89,886.29 97.08,889.11 107.73,892.06"/>
        <lane id="69152604_1" index="1" disallow="tram rail_urban rail rail_electric rail_fast ship" speed="27.78" length="49.34" shape="59.79,880.11 85.93,889.35 96.22,892.19 106.87,895.14"/>
    </edge>
    <edge id="69156898#0" from="829477313" to="9809380668" priority="12" type="highway.primary" spreadType="center" shape="107.40,893.63 142.37,900.83 189.24,901.40">
        <lane id="69156898#0_0" index="0" disallow="tram rail_urban rail rail_electric rail_fast ship" speed="27.78" length="82.32" shape="107.83,892.08 142.54,899.23 189.11,899.80"/>
        <lane id="69156898#0_1" index="1" disallow="tram rail_urban rail rail_electric rail_fast ship" speed="27.78" length="82.32" shape="107.19,895.22 142.20,902.43 189.07,903.00"/>
    </edge>
    <edge id="69156898#1" from="9809380668" to="9809380684" priority="12" type="highway.primary" spreadType="center" shape="189.24,901.40 220.03,901.79 247.65,901.16 286.78,900.87">
        <lane id="69156898#1_0" index="0" disallow="tram rail_urban rail rail_electric rail_fast ship" speed="27.78" length="97.26" shape="189.41,899.81 220.02,900.19 247.63,899.56 286.62,899.27"/>
        <lane id="69156898#1_1" index="1" disallow="tram rail_urban rail rail_electric rail_fast ship" speed="27.78" length="97.26" shape="189.37,903.01 220.04,903.39 247.68,902.76 286.65,902.47"/>
    </edge>
    <edge id="69156898#2" from="9809380684" to="cluster_265745257_829487525_829488048_829488081" priority="12" type="highway.primary" spreadType="center" shape="286.78,900.87 293.92,900.78 455.98,898.55">
        <lane id="69156898#2_0" index="0" disallow="tram rail_urban rail rail_electric rail_fast ship" speed="27.78" length="161.77" shape="286.91,899.27 293.89,899.18 448.67,897.05"/>
        <lane id="69156898#2_1" index="1" disallow="tram rail_urban rail rail_electric rail_fast ship" speed="27.78" length="161.77" shape="286.96,902.47 293.94,902.37 448.70,900.25"/>
    </edge>
    <edge id="69157154#0" from="829488282" to="5621621484" priority="12" type="highway.primary" spreadType="center">
        <lane id="69157154#0_0" index="0" disallow="tram rail_urban rail rail_electric rail_fast ship" speed="27.78" length="13.18" shape="108.04,907.83 95.62,903.42"/>
        <lane id="69157154#0_1" index="1" disallow="tram rail_urban rail rail_electric rail_fast ship" speed="27.78" length="13.18" shape="109.11,904.81 96.69,900.40"/>
    </edge>
    <edge id="69157154#1" from="5621621484" to="829488315" priority="12" type="highway.primary" spreadType="center">
        <lane id="69157154#1_0" index="0" disallow="tram rail_urban rail rail_electric rail_fast ship" speed="27.78" length="42.10" shape="95.62,903.42 55.95,889.32"/>
        <lane id="69157154#1_1" index="1" disallow="tram rail_urban rail rail_electric rail_fast ship" speed="27.78" length="42.10" shape="96.69,900.40 57.02,886.31"/>
    </edge>

    <junction id="10008544334" type="priority" x="591.80" y="907.81" incLanes="39692894#2_0 39692894#2_1" intLanes=":10008544334_0_0 :10008544334_0_1" shape="591.92,911.00 591.67,904.61 591.92,911.00">
        <request index="0" response="00" foes="00" cont="0"/>