<?xml version="1.0" encoding="UTF-8"?>

<!-- generated on 2024-05-29 23:10:21 by Eclipse SUMO polyconvert Version 1.19.0
<configuration xmlns:xsi="http://www.w3.org/2001/XMLSchema-instance" xsi:noNamespaceSchemaLocation="http://sumo.dlr.de/xsd/polyconvertConfiguration.xsd">

    <input>
        <net-file value="sumodata\tj.net.xml"/>
        <osm-files value="sumodata\tj.osm"/>
    </input>

    <output>
        <output-file value="sumodata\tj.poly.xml"/>
    </output>

</configuration>
-->

<additional xmlns:xsi="http://www.w3.org/2001/XMLSchema-instance" xsi:noNamespaceSchemaLocation="http://sumo.dlr.de/xsd/additional_file.xsd">
    <location netOffset="-353624.20,-3458475.75" convBoundary="-0.00,0.00,6556.88,6394.54" origBoundary="121.462585,31.251367,121.531075,31.309783" projParameter="+proj=utm +zone=51 +ellps=WGS84 +datum=WGS84 +units=m +no_defs"/>

    <poly id="1006634504" type="forest" color="140,196,107" fill="1" layer="-4.00" shape="1781.503621,2762.920825 1770.559711,2755.111098 1753.639570,2744.811508 1732.721883,2762.306417 1698.082014,2795.656173 1686.797122,2838.440770 1728.773394,2869.715258 1758.455055,2871.856507 1783.949680,2854.830798 1815.765232,2814.834799 1823.175747,2790.086637 1812.588035,2771.484417 1781.503621,2762.920825"/>
    <poly id="1051527986" type="building" color="255,230,230" fill="1" layer="-1.00" shape="1877.239268,3058.332960 1882.636469,3048.513319 1886.977700,3048.453592 1892.696991,3057.200077 1901.549812,3051.468319 1894.643893,3040.908816 1888.716875,3044.748815 1888.539931,3038.808673 1896.335339,3038.579472 1896.051413,3029.015387 1872.179786,3029.720771 1872.462971,3039.229432 1879.982293,3039.004018 1880.176387,3045.498269 1875.532899,3042.967824 1869.429704,3054.072176 1877.239268,3058.332960"/>
    <poly id="1051527987" type="residential" color="235,235,227" fill="1" layer="-3.00" shape="2247.891874,3265.653233 2241.378611,3045.701335 2225.066865,3046.357601 2222.791539,2992.972254 2178.144155,2993.784730 2178.785794,3015.550553 2098.229052,3017.621467 2105.142653,3037.072670 2163.768718,3151.404753 2193.594994,3267.485094 2200.789552,3267.197840 2247.891874,3265.653233"/>
    <poly id="1051527988" type="residential" color="235,235,227" fill="1" layer="-3.00" shape="1989.951524,3279.950833 2178.952185,3268.307013 2145.344566,3153.542542 2058.303203,3000.309058 1953.041023,3001.323648 1947.299987,3001.380423 1877.975186,2993.475576 1880.777815,3021.387081 1901.206062,3023.711461 1906.166949,3054.852829 1896.821867,3058.717669 1895.335272,3059.325726 1893.936016,3073.203597 1869.467142,3077.553711 1898.925277,3188.771297 1977.765435,3185.214572 1980.154549,3250.938092 1989.951524,3279.950833"/>
    <poly id="1051527989" type="leisure" color="207,245,201" fill="1" layer="-2.00" shape="2178.952185,3268.307013 2193.594994,3267.485094 2163.768718,3151.404753 2105.142653,3037.072670 2098.229052,3017.621467 2088.987066,2999.887463 2058.303203,3000.309058 2145.344566,3153.542542 2178.952185,3268.307013"/>
    <poly id="1051527990" type="building" color="255,230,230" fill="1" layer="-1.00" shape="2197.091236,3024.168739 2202.488747,3014.349274 2206.829987,3014.289680 2212.549020,3023.036330 2221.402031,3017.304849 2214.496424,3006.745147 2208.569278,3010.584960 2208.392668,3004.655905 2216.188097,3004.426943 2215.904311,2994.851776 2192.023102,2995.556559 2192.305996,3005.065218 2199.834857,3004.839904 2200.028753,3011.334153 2195.385487,3008.814654 2189.281789,3019.907721 2197.091236,3024.168739"/>
    <poly id="1051527991" type="building" color="255,230,230" fill="1" layer="-1.00" shape="2215.858040,3078.192478 2221.265057,3068.372892 2225.606275,3068.313304 2231.325265,3077.059963 2240.168870,3071.339712 2233.263163,3060.768914 2227.345562,3064.608587 2227.168962,3058.679531 2234.954830,3058.450712 2234.671060,3048.875545 2210.799494,3049.580160 2211.082374,3059.088819 2218.601675,3058.863647 2218.795560,3065.357897 2214.161843,3062.838260 2208.048640,3073.931448 2215.858040,3078.192478"/>
    <poly id="1051527993" type="building" color="255,230,230" fill="1" layer="-1.00" shape="2203.808297,3133.359903 2209.215271,3123.540308 2213.556466,3123.480715 2219.275439,3132.227367 2228.118838,3126.496019 2221.213303,3115.936314 2215.295739,3119.775995 2215.118978,3113.835854 2222.904806,3113.607025 2222.621175,3104.042941 2198.749734,3104.747588 2199.032474,3114.245164 2206.551888,3114.031067 2206.745782,3120.525317 2202.111933,3117.994601 2195.998931,3129.098883 2203.808297,3133.359903"/>
    <poly id="1051527994" type="building" color="255,230,230" fill="1" layer="-1.00" shape="2219.317154,3180.354943 2224.724115,3170.535355 2229.065290,3170.475767 2234.784228,3179.222427 2243.627593,3173.491090 2236.722102,3162.931376 2230.804560,3166.771050 2230.627808,3160.830908 2238.413600,3160.602089 2238.129981,3151.038005 2214.258649,3151.742621 2214.541528,3161.251281 2222.060756,3161.026110 2222.254642,3167.520360 2217.620816,3164.989638 2211.507829,3176.093913 2219.317154,3180.354943"/>
    <poly id="1051527997" type="building" color="255,230,230" fill="1" layer="-1.00" shape="2107.261941,3036.078998 2157.883454,3034.862652 2157.576186,3022.194566 2106.954916,3023.433080 2107.261941,3036.078998"/>
    <poly id="1051527998" type="building" color="255,230,230" fill="1" layer="-1.00" shape="2120.676716,3063.678460 2171.530317,3062.037684 2171.117885,3049.337781 2120.263918,3050.956387 2120.676716,3063.678460"/>
    <poly id="1051527999" type="building" color="255,230,230" fill="1" layer="-1.00" shape="2133.499507,3089.778251 2184.362500,3088.137402 2183.949931,3075.426414 2133.086724,3077.056178 2133.499507,3089.778251"/>
    <poly id="1051528000" type="building" color="255,230,230" fill="1" layer="-1.00" shape="2160.862682,3034.777394 2173.874575,3034.432422 2173.697421,3027.771639 2160.685519,3028.116611 2160.862682,3034.777394"/>
    <poly id="1054157958" type="building" color="255,230,230" fill="1" layer="-1.00" shape="1970.115715,3112.933429 1978.627062,3112.838572 1978.599089,3110.111581 1991.537476,3109.966953 1991.632205,3118.934946 1988.138148,3118.971897 1988.198356,3124.736254 1962.197246,3124.982898 1962.079601,3111.580462 1959.946928,3111.598702 1959.918854,3106.787376 1955.519918,3106.803520 1955.502346,3101.371184 1948.370654,3101.391651 1948.364482,3094.018951 1942.822659,3094.017557 1942.816110,3087.310076 1958.070376,3087.310949 1958.065635,3093.198155 1961.874477,3093.201213 1961.867835,3099.642789 1966.628999,3099.654928 1966.621053,3105.309352 1971.077568,3105.325682 1971.065587,3111.379290 1970.115715,3112.933429"/>
    <poly id="1054157962" type="building" color="255,230,230" fill="1" layer="-1.00" shape="1976.257738,3174.591885 2004.476985,3173.627387 2003.339861,3140.781472 1975.130046,3141.745838 1976.257738,3174.591885"/>
    <poly id="1054157963" type="building" color="255,230,230" fill="1" layer="-1.00" shape="2039.534429,3142.978070 2039.337916,3135.607989 2059.517148,3135.075669 2059.692854,3141.625606 2065.565874,3141.478379 2065.967394,3156.839289 2058.866590,3157.025562 2058.806649,3154.742487 2052.733866,3154.903550 2052.403541,3142.645990 2039.534429,3142.978070"/>
    <poly id="1054157964" type="landuse" color="194,194,130" fill="1" layer="-3.00" shape="1855.272537,3217.521582 1898.925277,3188.771297 1869.467142,3077.553711 1854.310838,3052.151533 1849.203981,3057.465913 1844.754426,3060.032786 1840.228316,3061.880067 1835.334458,3061.914159 1830.428701,3061.083639 1824.646837,3059.555618 1819.734883,3057.583237 1809.633498,3065.993110 1752.416056,3066.026977 1754.784173,3116.295652 1761.492180,3129.762563 1769.946748,3142.141086 1775.611281,3154.513682 1801.788572,3235.542237 1855.272537,3217.521582"/>
    <poly id="1054157965" type="residential" color="235,235,227" fill="1" layer="-3.00" shape="1754.784173,3116.295652 1704.706882,3095.476779 1709.915716,3021.532969 1711.181013,3017.302516 1714.702617,3013.040984 1719.522549,3008.329182 1723.628147,3005.678297 1728.362587,3004.437878 1734.974302,3003.992037 1741.823552,3005.582919 1756.027638,3015.055096 1819.734883,3057.583237 1809.633498,3065.993110 1752.416056,3066.026977 1754.784173,3116.295652"/>
    <poly id="1054157966" type="building" color="255,230,230" fill="1" layer="-1.00" shape="1783.625144,2963.364929 1842.073597,2984.933769 1831.072256,3014.443282 1772.624243,2992.896677 1783.625144,2963.364929"/>
    <poly id="1068460965" type="building" color="255,230,230" fill="1" layer="-1.00" shape="1905.664284,3012.773889 1905.712144,3014.868654 1925.740968,3014.460113 1925.782200,3016.765620 1945.925109,3016.344462 1945.713275,3006.480041 1925.684438,3006.888542 1925.632161,3004.472318 1906.374461,3004.870250 1906.333225,3002.564744 1885.333308,3002.986680 1885.540254,3013.183777 1905.664284,3012.773889"/>
    <poly id="1068460966" type="building" color="255,230,230" fill="1" layer="-1.00" shape="1959.600885,3018.573342 1980.461538,3017.721078 1980.359081,3015.117067 2019.720288,3013.511626 2019.276759,3002.719093 1979.058991,3004.358484 1979.172797,3007.095382 1959.159123,3007.913826 1959.600885,3018.573342"/>
    <poly id="1068460967" type="building" color="255,230,230" fill="1" layer="-1.00" shape="1968.274762,3045.528262 1989.135361,3044.676013 1989.023386,3042.072133 2028.393860,3040.455505 2027.950491,3029.674057 1987.732826,3031.313418 1987.837110,3034.050447 1967.833008,3034.868746 1968.274762,3045.528262"/>
    <poly id="1068460968" type="building" color="255,230,230" fill="1" layer="-1.00" shape="1980.642291,3072.421315 2001.512356,3071.568959 2001.400384,3068.965079 2040.761388,3067.359709 2040.317880,3056.567175 2000.100319,3058.206493 2000.214120,3060.943391 1980.210069,3061.761668 1980.642291,3072.421315"/>
    <poly id="1068460969" type="building" color="255,230,230" fill="1" layer="-1.00" shape="1992.248144,3099.324853 2013.118156,3098.472518 2013.006187,3095.868638 2052.376610,3094.263177 2051.933265,3083.481727 2011.706135,3085.110051 2011.819933,3087.846949 1991.815934,3088.665206 1992.248144,3099.324853"/>
    <poly id="1068460970" type="building" color="255,230,230" fill="1" layer="-1.00" shape="2003.604742,3126.109873 2024.465180,3125.257689 2024.362734,3122.653678 2063.723535,3121.048386 2063.280049,3110.255852 2023.062695,3111.895090 2023.176490,3114.631987 2003.163022,3115.450356 2003.604742,3126.109873"/>
    <poly id="1068460971" type="building" color="255,230,230" fill="1" layer="-1.00" shape="1955.734345,3040.689427 1955.356794,3031.237499 1915.871278,3032.800548 1916.248864,3042.252475 1955.734345,3040.689427"/>
    <poly id="1068460972" type="building" color="255,230,230" fill="1" layer="-1.00" shape="1967.592157,3067.212522 1967.214617,3057.760594 1927.729201,3059.323602 1928.106777,3068.775529 1967.592157,3067.212522"/>
    <poly id="1068460973" type="amenity" color="237,199,199" fill="1" layer="-1.00" shape="1902.560350,3078.550791 1920.363981,3077.673936 1919.666230,3063.636437 1901.862727,3064.524378 1902.560350,3078.550791"/>
    <poly id="1068460973#1" type="building" color="255,230,230" fill="1" layer="-1.00" shape="1902.560350,3078.550791 1920.363981,3077.673936 1919.666230,3063.636437 1901.862727,3064.524378 1902.560350,3078.550791"/>
    <poly id="1068460974" type="building" color="255,230,230" fill="1" layer="-1.00" shape="1929.894788,3096.312958 1929.664810,3086.515306 1879.614118,3087.680563 1879.834622,3097.478346 1929.894788,3096.312958"/>
    <poly id="1068460975" type="building" color="255,230,230" fill="1" layer="-1.00" shape="1939.594278,3123.065274 1939.373828,3113.267491 1889.313745,3114.432837 1889.543609,3124.219405 1939.594278,3123.065274"/>
    <poly id="1068460976" type="building" color="255,230,230" fill="1" layer="-1.00" shape="1946.089854,3150.183180 1945.859889,3140.385528 1895.800088,3141.561933 1896.029947,3151.348501 1946.089854,3150.183180"/>
    <poly id="1068460977" type="building" color="255,230,230" fill="1" layer="-1.00" shape="1951.623258,3177.269974 1951.393145,3167.461237 1901.342994,3168.637490 1901.572849,3178.424058 1951.623258,3177.269974"/>
    <poly id="1068460982" type="building" color="255,230,230" fill="1" layer="-1.00" shape="2054.968838,3178.266172 2053.767374,3156.663249 2008.838876,3159.143377 2010.040584,3180.757384 2054.968838,3178.266172"/>
    <poly id="1068460982#1" type="man_made" color="255,230,230" fill="1" layer="-1.00" shape="2054.968838,3178.266172 2053.767374,3156.663249 2008.838876,3159.143377 2010.040584,3180.757384 2054.968838,3178.266172"/>
    <poly id="1068460986" type="building" color="255,230,230" fill="1" layer="-1.00" shape="2090.830109,3189.481160 2111.699939,3188.629014 2111.587994,3186.025133 2150.948554,3184.420160 2150.514676,3173.627493 2110.288049,3175.266537 2110.401822,3178.003435 2090.397996,3178.821510 2090.830109,3189.481160"/>
    <poly id="1068460987" type="building" color="255,230,230" fill="1" layer="-1.00" shape="2080.507149,3163.058810 2101.367512,3162.206776 2101.265085,3159.602765 2140.625745,3157.997757 2140.182489,3147.216306 2099.965127,3148.844170 2100.078903,3151.581068 2080.075027,3152.399161 2080.507149,3163.058810"/>
    <poly id="1068460999" type="building" color="255,230,230" fill="1" layer="-1.00" shape="2098.734131,3127.164045 2105.492077,3126.971423 2105.285633,3119.568219 2101.716178,3119.661603 2101.493969,3111.804053 2093.983919,3112.007010 2094.059310,3114.722261 2087.967616,3114.894649 2088.242459,3124.503204 2098.655390,3124.204928 2098.734131,3127.164045"/>
    <poly id="1068461000" type="building" color="255,230,230" fill="1" layer="-1.00" shape="2121.110996,3129.262505 2127.869093,3129.080983 2127.662665,3121.677779 2124.093211,3121.771155 2123.870866,3113.902521 2116.360970,3114.116546 2116.436356,3116.831797 2110.344663,3117.004172 2110.619334,3126.601642 2121.032414,3126.314473 2121.110996,3129.262505"/>
    <poly id="1068461001" type="building" color="255,230,230" fill="1" layer="-1.00" shape="2101.111911,3099.935247 2107.860355,3099.742758 2107.653914,3092.339555 2104.094122,3092.443891 2103.871763,3084.575257 2096.361846,3084.789296 2096.437236,3087.504547 2090.335854,3087.665979 2090.610694,3097.274534 2101.023652,3096.976261 2101.111911,3099.935247"/>
    <poly id="1068461002" type="building" color="255,230,230" fill="1" layer="-1.00" shape="2069.896812,3098.401742 2076.654930,3098.220187 2076.438946,3090.817114 2072.879002,3090.910376 2072.656619,3083.041742 2065.146700,3083.255803 2065.222099,3085.971055 2059.130388,3086.143459 2059.395584,3095.741060 2069.818216,3095.453710 2069.896812,3098.401742"/>
    <poly id="1068461003" type="building" color="255,230,230" fill="1" layer="-1.00" shape="2057.566253,3071.408305 2064.314868,3071.226874 2064.108397,3063.823670 2060.548443,3063.916936 2060.316532,3056.048433 2052.806593,3056.262502 2052.891515,3058.977623 2046.790268,3059.150164 2047.064995,3068.747634 2057.478134,3068.460404 2057.566253,3071.408305"/>
    <poly id="1068461004" type="building" color="255,230,230" fill="1" layer="-1.00" shape="2087.731854,3072.091420 2094.489836,3071.898792 2094.273866,3064.495719 2090.713912,3064.588975 2090.491696,3056.731426 2082.981606,3056.934389 2083.057000,3059.649640 2076.965274,3059.822034 2077.230605,3069.430719 2087.653111,3069.132303 2087.731854,3072.091420"/>
    <poly id="1068461005" type="building" color="255,230,230" fill="1" layer="-1.00" shape="2073.827198,3046.960015 2080.575676,3046.767510 2080.369217,3039.364307 2076.809407,3039.468652 2076.587029,3031.600018 2069.077074,3031.814075 2069.152471,3034.529326 2063.051210,3034.701858 2063.325920,3044.299327 2073.739083,3044.012114 2073.827198,3046.960015"/>
    <poly id="1068461006" type="building" color="255,230,230" fill="1" layer="-1.00" shape="2044.814232,3044.930670 2051.572231,3044.738015 2051.356232,3037.334943 2047.796269,3037.428213 2047.574021,3029.570664 2040.063911,3029.773657 2040.139316,3032.488908 2034.047574,3032.661325 2034.312943,3042.270010 2044.725956,3041.971684 2044.814232,3044.930670"/>
    <poly id="1068461007" type="building" color="255,230,230" fill="1" layer="-1.00" shape="2054.793266,3017.209358 2061.551284,3017.016711 2061.335292,3009.613638 2057.775472,3009.717989 2057.553080,3001.849356 2050.043103,3002.063426 2050.118353,3004.767592 2044.026594,3004.940003 2044.301474,3014.548557 2054.714514,3014.250241 2054.793266,3017.209358"/>
    <poly id="1068461008" type="building" color="255,230,230" fill="1" layer="-1.00" shape="2179.672153,3136.972994 2186.420572,3136.780555 2186.214185,3129.377352 2182.644734,3129.470708 2182.422585,3121.613159 2174.912544,3121.816058 2174.997435,3124.531178 2168.896227,3124.703650 2169.170996,3134.312204 2179.583915,3134.014008 2179.672153,3136.972994"/>
    <poly id="1068461009" type="building" color="255,230,230" fill="1" layer="-1.00" shape="2156.067756,3117.595730 2162.816188,3117.403276 2162.609785,3110.000073 2159.049847,3110.093306 2158.818161,3102.235887 2151.308105,3102.438803 2151.393002,3105.153923 2145.291783,3105.326408 2145.566573,3114.934963 2155.979512,3114.636744 2156.067756,3117.595730"/>
    <poly id="1068461010" type="amenity" color="237,199,199" fill="1" layer="-1.00" shape="2186.602230,3161.801154 2185.847560,3147.753349 2167.426610,3148.738019 2168.181305,3162.785823 2186.602230,3161.801154"/>
    <poly id="1068461010#1" type="building" color="255,230,230" fill="1" layer="-1.00" shape="2186.602230,3161.801154 2185.847560,3147.753349 2167.426610,3148.738019 2168.181305,3162.785823 2186.602230,3161.801154"/>
    <poly id="1068461011" type="amenity" color="237,199,199" fill="1" layer="-1.00" shape="2165.409742,3114.196813 2184.384749,3113.337578 2183.689497,3098.069401 2164.714462,3098.928636 2165.409742,3114.196813"/>
    <poly id="1068461011#1" type="building" color="255,230,230" fill="1" layer="-1.00" shape="2165.409742,3114.196813 2184.384749,3113.337578 2183.689497,3098.069401 2164.714462,3098.928636 2165.409742,3114.196813"/>
    <poly id="1068498174" type="building" color="255,230,230" fill="1" layer="-1.00" shape="1977.124680,2835.964139 1980.623273,2827.246093 1977.856169,2826.142186 1980.544550,2819.442007 1971.927531,2816.023759 1969.975491,2820.873394 1968.673242,2820.348041 1969.962213,2817.137295 1965.605718,2815.401117 1961.241627,2826.270838 1966.632117,2828.414099 1967.387036,2826.530035 1968.995615,2827.173132 1967.071378,2831.966951 1977.124680,2835.964139"/>
    <poly id="1068498175" type="building" color="255,230,230" fill="1" layer="-1.00" shape="1960.926263,2858.737586 1964.424834,2850.019534 1961.657734,2848.915631 1964.346250,2842.226531 1955.719571,2838.797343 1953.777063,2843.646851 1952.474817,2843.121500 1953.763779,2839.910752 1949.407290,2838.174581 1945.043227,2849.044309 1950.433709,2851.187562 1951.188624,2849.303497 1952.797200,2849.946591 1950.863607,2854.751629 1960.926263,2858.737586"/>
    <poly id="1068498176" type="building" color="255,230,230" fill="1" layer="-1.00" shape="1951.410414,2883.436982 1954.899447,2874.719056 1952.132352,2873.615156 1954.820703,2866.914969 1946.203712,2863.496743 1944.261062,2868.335168 1942.949450,2867.821034 1944.247774,2864.599068 1939.891446,2862.873986 1935.527404,2873.743720 1940.917876,2875.886968 1941.672787,2874.002902 1943.271840,2874.646125 1941.347625,2879.439950 1951.410414,2883.436982"/>
    <poly id="1068498177" type="building" color="255,230,230" fill="1" layer="-1.00" shape="1982.785586,2805.829760 1986.284194,2797.111717 1983.517083,2796.007808 1986.205476,2789.307631 1977.588436,2785.889378 1975.636234,2790.727926 1974.334135,2790.213657 1975.622959,2786.991828 1971.266605,2785.266732 1966.902494,2796.136449 1972.292998,2798.279713 1973.047921,2796.395650 1974.656351,2797.027663 1972.722737,2801.832696 1982.785586,2805.829760"/>
    <poly id="1068498178" type="building" color="255,230,230" fill="1" layer="-1.00" shape="2006.122933,2816.096928 2009.641512,2807.445141 2013.471635,2808.989008 2016.216556,2802.243714 2000.896204,2796.079335 1998.934017,2800.884756 1997.526433,2800.316500 1998.834303,2797.094411 1994.544601,2795.368390 1990.132717,2806.227667 1995.590616,2808.425450 1996.345694,2806.552474 1997.820378,2807.153068 1995.867867,2811.969443 2006.122933,2816.096928"/>
    <poly id="1068498179" type="building" color="255,230,230" fill="1" layer="-1.00" shape="2002.117615,2866.231453 2003.289528,2863.510143 2008.816171,2865.862204 2011.344466,2859.984662 2007.800431,2858.470125 2012.192583,2848.254165 2026.789977,2848.242010 2026.796608,2850.802990 2031.710057,2850.801983 2031.711654,2848.839583 2036.748869,2848.836878 2036.745668,2845.832376 2037.650261,2845.831031 2037.651476,2840.376267 2036.312523,2839.951192 2036.138104,2834.188409 2028.571036,2834.414360 2027.624711,2838.307775 2019.912402,2838.358338 2019.932973,2841.240646 2016.695724,2841.262966 2016.704181,2842.571103 2013.219553,2842.607911 2013.209115,2841.155673 2007.349491,2843.675329 2000.193537,2856.490354 1998.966928,2856.618084 1997.426084,2860.209243 1999.245933,2860.982482 1997.788336,2864.395107 2002.117615,2866.231453"/>
    <poly id="1068498180" type="building" color="255,230,230" fill="1" layer="-1.00" shape="1859.491398,3191.276264 1859.358984,3185.113770 1862.271836,3185.051512 1862.182108,3180.606900 1882.486549,3180.183381 1882.580450,3184.239894 1885.388580,3184.179083 1885.520063,3190.275069 1875.334456,3190.481737 1875.387814,3192.975555 1870.609176,3193.074570 1870.571743,3191.046182 1859.491398,3191.276264"/>
    <poly id="1068498181" type="building" color="255,230,230" fill="1" layer="-1.00" shape="1853.827652,3163.038262 1853.695236,3156.875768 1856.598575,3156.813640 1856.508846,3152.369028 1876.822862,3151.945369 1876.907245,3156.002013 1879.724903,3155.941070 1879.846715,3162.026102 1869.661233,3162.243859 1869.714592,3164.737677 1864.935941,3164.836694 1864.898507,3162.808306 1853.827652,3163.038262"/>
    <poly id="1068498182" type="building" color="255,230,230" fill="1" layer="-1.00" shape="1829.080341,3133.998567 1828.964053,3127.625200 1831.886594,3127.573888 1831.797007,3123.140361 1873.511675,3122.366736 1873.586691,3126.434596 1876.394989,3126.384868 1876.503317,3132.181826 1864.956117,3132.396149 1865.003313,3135.133963 1861.014669,3135.211023 1860.974184,3132.960940 1845.190662,3133.244668 1845.234506,3135.738617 1840.170084,3135.830490 1840.132493,3133.791018 1829.080341,3133.998567"/>
    <poly id="1068498183" type="building" color="255,230,230" fill="1" layer="-1.00" shape="1824.184637,3104.840881 1824.058827,3098.467645 1826.981375,3098.416332 1826.891787,3093.982805 1868.606571,3093.209165 1868.681589,3097.277025 1871.499415,3097.227165 1871.598073,3103.013168 1860.050840,3103.227496 1860.107709,3105.976264 1856.119054,3106.053326 1856.078416,3103.792157 1840.285482,3104.087107 1840.329175,3106.569971 1835.264891,3106.672931 1835.227299,3104.633459 1824.184637,3104.840881"/>
    <poly id="1068498184" type="building" color="255,230,230" fill="1" layer="-1.00" shape="1822.185349,3079.268746 1821.993201,3072.918597 1824.867546,3072.823599 1824.740639,3068.446021 1859.909638,3067.363322 1860.031649,3071.386187 1862.877586,3071.302678 1863.050884,3076.976785 1853.808888,3077.259179 1853.894624,3080.029724 1850.249145,3080.135325 1850.180555,3077.918889 1834.342422,3078.391858 1834.424654,3080.907453 1829.104075,3081.069377 1829.047899,3079.063421 1822.185349,3079.268746"/>
    <poly id="1068498185" type="building" color="255,230,230" fill="1" layer="-1.00" shape="1774.155842,3146.318327 1774.039673,3139.956043 1776.952690,3139.904847 1776.872600,3135.471188 1818.587073,3134.686259 1818.662111,3138.754119 1821.470407,3138.704376 1821.578766,3144.501335 1810.022057,3144.715849 1810.078939,3147.464618 1806.090147,3147.530615 1806.049650,3145.280531 1790.256624,3145.564473 1790.300481,3148.058423 1785.236064,3148.150323 1785.198462,3146.110850 1774.155842,3146.318327"/>
    <poly id="1068498189" type="amenity" color="237,199,199" fill="1" layer="-1.00" shape="1859.677920,3179.920712 1869.157371,3179.601790 1868.693523,3165.960199 1859.213907,3166.268036 1859.677920,3179.920712"/>
    <poly id="1068498189#1" type="building" color="255,230,230" fill="1" layer="-1.00" shape="1859.677920,3179.920712 1869.157371,3179.601790 1868.693523,3165.960199 1859.213907,3166.268036 1859.677920,3179.920712"/>
    <poly id="1068498190" type="amenity" color="237,199,199" fill="1" layer="-1.00" shape="1804.285834,3200.451068 1853.752493,3182.485720 1851.447199,3176.186825 1848.860713,3177.131546 1846.120206,3169.652343 1844.215813,3170.343766 1841.267445,3162.290906 1834.559376,3164.722567 1832.600546,3159.383467 1792.987584,3173.787391 1802.376225,3199.379753 1803.721671,3198.895581 1804.285834,3200.451068"/>
    <poly id="1068498190#1" type="building" color="255,230,230" fill="1" layer="-1.00" shape="1804.285834,3200.451068 1853.752493,3182.485720 1851.447199,3176.186825 1848.860713,3177.131546 1846.120206,3169.652343 1844.215813,3170.343766 1841.267445,3162.290906 1834.559376,3164.722567 1832.600546,3159.383467 1792.987584,3173.787391 1802.376225,3199.379753 1803.721671,3198.895581 1804.285834,3200.451068"/>
    <poly id="1068582485" type="amenity" color="237,199,199" fill="1" layer="-1.00" shape="1961.942242,3162.526628 1970.147686,3162.347274 1969.727557,3142.873379 1961.512579,3143.052864 1961.942242,3162.526628"/>
    <poly id="1068601302" type="building" color="255,230,230" fill="1" layer="-1.00" shape="2145.064774,2778.854143 2183.120399,2784.739843 2184.765377,2774.162554 2146.719236,2768.276716 2145.064774,2778.854143"/>
    <poly id="1068601303" type="building" color="255,230,230" fill="1" layer="-1.00" shape="2210.058027,2792.308268 2209.620345,2795.108168 2219.849557,2796.664058 2220.146933,2794.741947 2223.124011,2795.188910 2222.835394,2797.055466 2229.543642,2798.083173 2231.092001,2788.094824 2211.730698,2785.134274 2212.124277,2782.589978 2193.106607,2779.691267 2191.655095,2789.101776 2197.323186,2789.966352 2197.549872,2788.444339 2201.614873,2789.064838 2201.317349,2790.975865 2210.058027,2792.308268"/>
    <poly id="1068601304" type="building" color="255,230,230" fill="1" layer="-1.00" shape="2207.621090,2821.500199 2207.593399,2824.338820 2214.116875,2824.393408 2214.137699,2822.441832 2217.737641,2822.481116 2217.715751,2824.355098 2227.753484,2824.450155 2227.843078,2814.326609 2208.253591,2814.163093 2208.284783,2811.579423 2189.028657,2811.422453 2188.949771,2820.936076 2194.682901,2820.990415 2194.690312,2819.449237 2198.804359,2819.481457 2198.783385,2821.421949 2207.621090,2821.500199"/>
    <poly id="1068601305" type="building" color="255,230,230" fill="1" layer="-1.00" shape="2214.817220,2763.029030 2214.140915,2765.787857 2224.191611,2768.210980 2224.651293,2766.319902 2227.584276,2767.022470 2227.133353,2768.857992 2233.735130,2770.452595 2236.133257,2760.629975 2217.101647,2756.024032 2217.714809,2753.521069 2199.017612,2748.999263 2196.754564,2758.254607 2202.324489,2759.597270 2202.694440,2758.106551 2206.688005,2759.071726 2206.228173,2760.951720 2214.817220,2763.029030"/>
    <poly id="1068601306" type="building" color="255,230,230" fill="1" layer="-1.00" shape="2117.372445,2810.632497 2126.899785,2787.429848 2104.348892,2778.260300 2094.821743,2801.474055 2117.372445,2810.632497"/>
    <poly id="1068601307" type="building" color="255,230,230" fill="1" layer="-1.00" shape="2131.003939,2788.127391 2133.239015,2782.386953 2119.291408,2777.023981 2118.251980,2779.688021 2114.580963,2779.328228 2113.743983,2781.479491 2131.003939,2788.127391"/>
    <poly id="1068601308" type="building" color="255,230,230" fill="1" layer="-1.00" shape="2045.264846,2839.362518 2063.087397,2834.982210 2060.123744,2823.038010 2042.291806,2827.429538 2045.264846,2839.362518"/>
    <poly id="1068601309" type="building" color="255,230,230" fill="1" layer="-1.00" shape="1808.521312,2906.334889 1823.814294,2912.588058 1827.841206,2902.831599 1812.548213,2896.578424 1808.521312,2906.334889"/>
    <poly id="1068601311" type="building" color="255,230,230" fill="1" layer="-1.00" shape="1830.403166,2857.894407 1834.526380,2848.214237 1861.172199,2859.477724 1856.938077,2869.403321 1846.603476,2865.033163 1846.123821,2866.159540 1838.662574,2863.002669 1839.243597,2861.630985 1830.403166,2857.894407"/>
    <poly id="1068601312" type="building" color="255,230,230" fill="1" layer="-1.00" shape="1823.992800,2872.284729 1829.857480,2859.066042 1838.662574,2863.002669 1846.123821,2866.159540 1854.986178,2870.106480 1849.121474,2883.325152 1823.992800,2872.284729"/>
    <poly id="1068601328" type="amenity" color="237,199,199" fill="1" layer="-1.00" shape="2052.792405,2958.221356 2071.990319,2957.624954 2071.674643,2947.817398 2071.503441,2942.287395 2052.305499,2942.883797 2052.472294,2948.092341 2052.792405,2958.221356"/>
    <poly id="1068601328#1" type="building" color="255,230,230" fill="1" layer="-1.00" shape="2052.792405,2958.221356 2071.990319,2957.624954 2071.674643,2947.817398 2071.503441,2942.287395 2052.305499,2942.883797 2052.472294,2948.092341 2052.792405,2958.221356"/>
    <poly id="1068601329" type="building" color="255,230,230" fill="1" layer="-1.00" shape="1987.053683,2959.058404 2026.615336,2958.858279 2026.689317,2937.914132 2011.958458,2937.905954 2011.958253,2944.125701 2000.912533,2944.122320 2000.916084,2938.146438 1987.023319,2938.148948 1987.053683,2959.058404"/>
    <poly id="1068851490" type="residential" color="235,235,227" fill="1" layer="-3.00" shape="1810.063025,2893.818733 1832.768427,2903.140742 1822.492360,2927.928345 1862.283505,2941.627416 1940.537788,2909.873516 1956.183439,2896.076925 1957.801633,2891.187529 1833.784959,2842.082300 1812.075548,2889.910618 1810.063025,2893.818733"/>