<?xml version="1.0" encoding="UTF-8"?>

<!-- generated on 2024-05-29 16:18:39 by Eclipse SUMO polyconvert Version 1.19.0
<configuration xmlns:xsi="http://www.w3.org/2001/XMLSchema-instance" xsi:noNamespaceSchemaLocation="http://sumo.dlr.de/xsd/polyconvertConfiguration.xsd">

    <input>
        <net-file value="sumodata/tj.net.xml"/>
        <osm-files value="sumodata/tj.osm"/>
    </input>

    <output>
        <output-file value="sumodata/tj.poly.xml"/>
    </output>

</configuration>
-->

<additional xmlns:xsi="http://www.w3.org/2001/XMLSchema-instance" xsi:noNamespaceSchemaLocation="http://sumo.dlr.de/xsd/additional_file.xsd">
    <location netOffset="-355410.33,-3460550.47" convBoundary="-1786.13,-2074.72,4770.75,4319.82" origBoundary="121.462585,31.251367,121.531075,31.309783" projParameter="+proj=utm +zone=51 +ellps=WGS84 +datum=WGS84 +units=m +no_defs"/>

    <poly id="1006634504" type="forest" color="140,196,107" fill="1" layer="-4.00" shape="-4.626379,688.200825 -15.570289,680.391098 -32.490430,670.091508 -53.408117,687.586417 -88.047986,720.936173 -99.332878,763.720770 -57.356606,794.995258 -27.674945,797.136507 -2.180320,780.110798 29.635232,740.114799 37.045747,715.366637 26.458035,696.764417 -4.626379,688.200825"/>
    <poly id="1051527986" type="building" color="255,230,230" fill="1" layer="-1.00" shape="91.109268,983.612960 96.506469,973.793319 100.847700,973.733592 106.566991,982.480077 115.419812,976.748319 108.513893,966.188816 102.586875,970.028815 102.409931,964.088673 110.205339,963.859472 109.921413,954.295387 86.049786,955.000771 86.332971,964.509432 93.852293,964.284018 94.046387,970.778269 89.402899,968.247824 83.299704,979.352176 91.109268,983.612960"/>
    <poly id="1051527987" type="residential" color="235,235,227" fill="1" layer="-3.00" shape="461.761874,1190.933233 455.248611,970.981335 438.936865,971.637601 436.661539,918.252254 392.014155,919.064730 392.655794,940.830553 312.099052,942.901467 319.012653,962.352670 377.638718,1076.684753 407.464994,1192.765094 414.659552,1192.477840 461.761874,1190.933233"/>
    <poly id="1051527988" type="residential" color="235,235,227" fill="1" layer="-3.00" shape="203.821524,1205.230833 392.822185,1193.587013 359.214566,1078.822542 272.173203,925.589058 166.911023,926.603648 161.169987,926.660423 91.845186,918.755576 94.647815,946.667081 115.076062,948.991461 120.036949,980.132829 110.691867,983.997669 109.205272,984.605726 107.806016,998.483597 83.337142,1002.833711 112.795277,1114.051297 191.635435,1110.494572 194.024549,1176.218092 203.821524,1205.230833"/>
    <poly id="1051527989" type="leisure" color="207,245,201" fill="1" layer="-2.00" shape="392.822185,1193.587013 407.464994,1192.765094 377.638718,1076.684753 319.012653,962.352670 312.099052,942.901467 302.857066,925.167463 272.173203,925.589058 359.214566,1078.822542 392.822185,1193.587013"/>
    <poly id="1051527990" type="building" color="255,230,230" fill="1" layer="-1.00" shape="410.961236,949.448739 416.358747,939.629274 420.699987,939.569680 426.419020,948.316330 435.272031,942.584849 428.366424,932.025147 422.439278,935.864960 422.262668,929.935905 430.058097,929.706943 429.774311,920.131776 405.893102,920.836559 406.175996,930.345218 413.704857,930.119904 413.898753,936.614153 409.255487,934.094654 403.151789,945.187721 410.961236,949.448739"/>
    <poly id="1051527991" type="building" color="255,230,230" fill="1" layer="-1.00" shape="429.728040,1003.472478 435.135057,993.652892 439.476275,993.593304 445.195265,1002.339963 454.038870,996.619712 447.133163,986.048914 441.215562,989.888587 441.038962,983.959531 448.824830,983.730712 448.541060,974.155545 424.669494,974.860160 424.952374,984.368819 432.471675,984.143647 432.665560,990.637897 428.031843,988.118260 421.918640,999.211448 429.728040,1003.472478"/>
    <poly id="1051527993" type="building" color="255,230,230" fill="1" layer="-1.00" shape="417.678297,1058.639903 423.085271,1048.820308 427.426466,1048.760715 433.145439,1057.507367 441.988838,1051.776019 435.083303,1041.216314 429.165739,1045.055995 428.988978,1039.115854 436.774806,1038.887025 436.491175,1029.322941 412.619734,1030.027588 412.902474,1039.525164 420.421888,1039.311067 420.615782,1045.805317 415.981933,1043.274601 409.868931,1054.378883 417.678297,1058.639903"/>
    <poly id="1051527994" type="building" color="255,230,230" fill="1" layer="-1.00" shape="433.187154,1105.634943 438.594115,1095.815355 442.935290,1095.755767 448.654228,1104.502427 457.497593,1098.771090 450.592102,1088.211376 444.674560,1092.051050 444.497808,1086.110908 452.283600,1085.882089 451.999981,1076.318005 428.128649,1077.022621 428.411528,1086.531281 435.930756,1086.306110 436.124642,1092.800360 431.490816,1090.269638 425.377829,1101.373913 433.187154,1105.634943"/>
    <poly id="1051527997" type="building" color="255,230,230" fill="1" layer="-1.00" shape="321.131941,961.358998 371.753454,960.142652 371.446186,947.474566 320.824916,948.713080 321.131941,961.358998"/>
    <poly id="1051527998" type="building" color="255,230,230" fill="1" layer="-1.00" shape="334.546716,988.958460 385.400317,987.317684 384.987885,974.617781 334.133918,976.236387 334.546716,988.958460"/>
    <poly id="1051527999" type="building" color="255,230,230" fill="1" layer="-1.00" shape="347.369507,1015.058251 398.232500,1013.417402 397.819931,1000.706414 346.956724,1002.336178 347.369507,1015.058251"/>
    <poly id="1051528000" type="building" color="255,230,230" fill="1" layer="-1.00" shape="374.732682,960.057394 387.744575,959.712422 387.567421,953.051639 374.555519,953.396611 374.732682,960.057394"/>
    <poly id="1054157958" type="building" color="255,230,230" fill="1" layer="-1.00" shape="183.985715,1038.213429 192.497062,1038.118572 192.469089,1035.391581 205.407476,1035.246953 205.502205,1044.214946 202.008148,1044.251897 202.068356,1050.016254 176.067246,1050.262898 175.949601,1036.860462 173.816928,1036.878702 173.788854,1032.067376 169.389918,1032.083520 169.372346,1026.651184 162.240654,1026.671651 162.234482,1019.298951 156.692659,1019.297557 156.686110,1012.590076 171.940376,1012.590949 171.935635,1018.478155 175.744477,1018.481213 175.737835,1024.922789 180.498999,1024.934928 180.491053,1030.589352 184.947568,1030.605682 184.935587,1036.659290 183.985715,1038.213429"/>
    <poly id="1054157962" type="building" color="255,230,230" fill="1" layer="-1.00" shape="190.127738,1099.871885 218.346985,1098.907387 217.209861,1066.061472 189.000046,1067.025838 190.127738,1099.871885"/>
    <poly id="1054157963" type="building" color="255,230,230" fill="1" layer="-1.00" shape="253.404429,1068.258070 253.207916,1060.887989 273.387148,1060.355669 273.562854,1066.905606 279.435874,1066.758379 279.837394,1082.119289 272.736590,1082.305562 272.676649,1080.022487 266.603866,1080.183550 266.273541,1067.925990 253.404429,1068.258070"/>
    <poly id="1054157964" type="landuse" color="194,194,130" fill="1" layer="-3.00" shape="69.142537,1142.801582 112.795277,1114.051297 83.337142,1002.833711 68.180838,977.431533 63.073981,982.745913 58.624426,985.312786 54.098316,987.160067 49.204458,987.194159 44.298701,986.363639 38.516837,984.835618 33.604883,982.863237 23.503498,991.273110 -33.713944,991.306977 -31.345827,1041.575652 -24.637820,1055.042563 -16.183252,1067.421086 -10.518719,1079.793682 15.658572,1160.822237 69.142537,1142.801582"/>
    <poly id="1054157965" type="residential" color="235,235,227" fill="1" layer="-3.00" shape="-31.345827,1041.575652 -81.423118,1020.756779 -76.214284,946.812969 -74.948987,942.582516 -71.427383,938.320984 -66.607451,933.609182 -62.501853,930.958297 -57.767413,929.717878 -51.155698,929.272037 -44.306448,930.862919 -30.102362,940.335096 33.604883,982.863237 23.503498,991.273110 -33.713944,991.306977 -31.345827,1041.575652"/>
    <poly id="1054157966" type="building" color="255,230,230" fill="1" layer="-1.00" shape="-2.504856,888.644929 55.943597,910.213769 44.942256,939.723282 -13.505757,918.176677 -2.504856,888.644929"/>
    <poly id="1068460965" type="building" color="255,230,230" fill="1" layer="-1.00" shape="119.534284,938.053889 119.582144,940.148654 139.610968,939.740113 139.652200,942.045620 159.795109,941.624462 159.583275,931.760041 139.554438,932.168542 139.502161,929.752318 120.244461,930.150250 120.203225,927.844744 99.203308,928.266680 99.410254,938.463777 119.534284,938.053889"/>
    <poly id="1068460966" type="building" color="255,230,230" fill="1" layer="-1.00" shape="173.470885,943.853342 194.331538,943.001078 194.229081,940.397067 233.590288,938.791626 233.146759,927.999093 192.928991,929.638484 193.042797,932.375382 173.029123,933.193826 173.470885,943.853342"/>
    <poly id="1068460967" type="building" color="255,230,230" fill="1" layer="-1.00" shape="182.144762,970.808262 203.005361,969.956013 202.893386,967.352133 242.263860,965.735505 241.820491,954.954057 201.602826,956.593418 201.707110,959.330447 181.703008,960.148746 182.144762,970.808262"/>
    <poly id="1068460968" type="building" color="255,230,230" fill="1" layer="-1.00" shape="194.512291,997.701315 215.382356,996.848959 215.270384,994.245079 254.631388,992.639709 254.187880,981.847175 213.970319,983.486493 214.084120,986.223391 194.080069,987.041668 194.512291,997.701315"/>
    <poly id="1068460969" type="building" color="255,230,230" fill="1" layer="-1.00" shape="206.118144,1024.604853 226.988156,1023.752518 226.876187,1021.148638 266.246610,1019.543177 265.803265,1008.761727 225.576135,1010.390051 225.689933,1013.126949 205.685934,1013.945206 206.118144,1024.604853"/>
    <poly id="1068460970" type="building" color="255,230,230" fill="1" layer="-1.00" shape="217.474742,1051.389873 238.335180,1050.537689 238.232734,1047.933678 277.593535,1046.328386 277.150049,1035.535852 236.932695,1037.175090 237.046490,1039.911987 217.033022,1040.730356 217.474742,1051.389873"/>
    <poly id="1068460971" type="building" color="255,230,230" fill="1" layer="-1.00" shape="169.604345,965.969427 169.226794,956.517499 129.741278,958.080548 130.118864,967.532475 169.604345,965.969427"/>
    <poly id="1068460972" type="building" color="255,230,230" fill="1" layer="-1.00" shape="181.462157,992.492522 181.084617,983.040594 141.599201,984.603602 141.976777,994.055529 181.462157,992.492522"/>
    <poly id="1068460973" type="amenity" color="237,199,199" fill="1" layer="-1.00" shape="116.430350,1003.830791 134.233981,1002.953936 133.536230,988.916437 115.732727,989.804378 116.430350,1003.830791"/>
    <poly id="1068460973#1" type="building" color="255,230,230" fill="1" layer="-1.00" shape="116.430350,1003.830791 134.233981,1002.953936 133.536230,988.916437 115.732727,989.804378 116.430350,1003.830791"/>
    <poly id="1068460974" type="building" color="255,230,230" fill="1" layer="-1.00" shape="143.764788,1021.592958 143.534810,1011.795306 93.484118,1012.960563 93.704622,1022.758346 143.764788,1021.592958"/>
    <poly id="1068460975" type="building" color="255,230,230" fill="1" layer="-1.00" shape="153.464278,1048.345274 153.243828,1038.547491 103.183745,1039.712837 103.413609,1049.499405 153.464278,1048.345274"/>
    <poly id="1068460976" type="building" color="255,230,230" fill="1" layer="-1.00" shape="159.959854,1075.463180 159.729889,1065.665528 109.670088,1066.841933 109.899947,1076.628501 159.959854,1075.463180"/>
    <poly id="1068460977" type="building" color="255,230,230" fill="1" layer="-1.00" shape="165.493258,1102.549974 165.263145,1092.741237 115.212994,1093.917490 115.442849,1103.704058 165.493258,1102.549974"/>
    <poly id="1068460982" type="building" color="255,230,230" fill="1" layer="-1.00" shape="268.838838,1103.546172 267.637374,1081.943249 222.708876,1084.423377 223.910584,1106.037384 268.838838,1103.546172"/>
    <poly id="1068460982#1" type="man_made" color="255,230,230" fill="1" layer="-1.00" shape="268.838838,1103.546172 267.637374,1081.943249 222.708876,1084.423377 223.910584,1106.037384 268.838838,1103.546172"/>
    <poly id="1068460986" type="building" color="255,230,230" fill="1" layer="-1.00" shape="304.700109,1114.761160 325.569939,1113.909014 325.457994,1111.305133 364.818554,1109.700160 364.384676,1098.907493 324.158049,1100.546537 324.271822,1103.283435 304.267996,1104.101510 304.700109,1114.761160"/>
    <poly id="1068460987" type="building" color="255,230,230" fill="1" layer="-1.00" shape="294.377149,1088.338810 315.237512,1087.486776 315.135085,1084.882765 354.495745,1083.277757 354.052489,1072.496306 313.835127,1074.124170 313.948903,1076.861068 293.945027,1077.679161 294.377149,1088.338810"/>
    <poly id="1068460999" type="building" color="255,230,230" fill="1" layer="-1.00" shape="312.604131,1052.444045 319.362077,1052.251423 319.155633,1044.848219 315.586178,1044.941603 315.363969,1037.084053 307.853919,1037.287010 307.929310,1040.002261 301.837616,1040.174649 302.112459,1049.783204 312.525390,1049.484928 312.604131,1052.444045"/>
    <poly id="1068461000" type="building" color="255,230,230" fill="1" layer="-1.00" shape="334.980996,1054.542505 341.739093,1054.360983 341.532665,1046.957779 337.963211,1047.051155 337.740866,1039.182521 330.230970,1039.396546 330.306356,1042.111797 324.214663,1042.284172 324.489334,1051.881642 334.902414,1051.594473 334.980996,1054.542505"/>
    <poly id="1068461001" type="building" color="255,230,230" fill="1" layer="-1.00" shape="314.981911,1025.215247 321.730355,1025.022758 321.523914,1017.619555 317.964122,1017.723891 317.741763,1009.855257 310.231846,1010.069296 310.307236,1012.784547 304.205854,1012.945979 304.480694,1022.554534 314.893652,1022.256261 314.981911,1025.215247"/>
    <poly id="1068461002" type="building" color="255,230,230" fill="1" layer="-1.00" shape="283.766812,1023.681742 290.524930,1023.500187 290.308946,1016.097114 286.749002,1016.190376 286.526619,1008.321742 279.016700,1008.535803 279.092099,1011.251055 273.000388,1011.423459 273.265584,1021.021060 283.688216,1020.733710 283.766812,1023.681742"/>
    <poly id="1068461003" type="building" color="255,230,230" fill="1" layer="-1.00" shape="271.436253,996.688305 278.184868,996.506874 277.978397,989.103670 274.418443,989.196936 274.186532,981.328433 266.676593,981.542502 266.761515,984.257623 260.660268,984.430164 260.934995,994.027634 271.348134,993.740404 271.436253,996.688305"/>
    <poly id="1068461004" type="building" color="255,230,230" fill="1" layer="-1.00" shape="301.601854,997.371420 308.359836,997.178792 308.143866,989.775719 304.583912,989.868975 304.361696,982.011426 296.851606,982.214389 296.927000,984.929640 290.835274,985.102034 291.100605,994.710719 301.523111,994.412303 301.601854,997.371420"/>
    <poly id="1068461005" type="building" color="255,230,230" fill="1" layer="-1.00" shape="287.697198,972.240015 294.445676,972.047510 294.239217,964.644307 290.679407,964.748652 290.457029,956.880018 282.947074,957.094075 283.022471,959.809326 276.921210,959.981858 277.195920,969.579327 287.609083,969.292114 287.697198,972.240015"/>
    <poly id="1068461006" type="building" color="255,230,230" fill="1" layer="-1.00" shape="258.684232,970.210670 265.442231,970.018015 265.226232,962.614943 261.666269,962.708213 261.444021,954.850664 253.933911,955.053657 254.009316,957.768908 247.917574,957.941325 248.182943,967.550010 258.595956,967.251684 258.684232,970.210670"/>
    <poly id="1068461007" type="building" color="255,230,230" fill="1" layer="-1.00" shape="268.663266,942.489358 275.421284,942.296711 275.205292,934.893638 271.645472,934.997989 271.423080,927.129356 263.913103,927.343426 263.988353,930.047592 257.896594,930.220003 258.171474,939.828557 268.584514,939.530241 268.663266,942.489358"/>
    <poly id="1068461008" type="building" color="255,230,230" fill="1" layer="-1.00" shape="393.542153,1062.252994 400.290572,1062.060555 400.084185,1054.657352 396.514734,1054.750708 396.292585,1046.893159 388.782544,1047.096058 388.867435,1049.811178 382.766227,1049.983650 383.040996,1059.592204 393.453915,1059.294008 393.542153,1062.252994"/>
    <poly id="1068461009" type="building" color="255,230,230" fill="1" layer="-1.00" shape="369.937756,1042.875730 376.686188,1042.683276 376.479785,1035.280073 372.919847,1035.373306 372.688161,1027.515887 365.178105,1027.718803 365.263002,1030.433923 359.161783,1030.606408 359.436573,1040.214963 369.849512,1039.916744 369.937756,1042.875730"/>
    <poly id="1068461010" type="amenity" color="237,199,199" fill="1" layer="-1.00" shape="400.472230,1087.081154 399.717560,1073.033349 381.296610,1074.018019 382.051305,1088.065823 400.472230,1087.081154"/>
    <poly id="1068461010#1" type="building" color="255,230,230" fill="1" layer="-1.00" shape="400.472230,1087.081154 399.717560,1073.033349 381.296610,1074.018019 382.051305,1088.065823 400.472230,1087.081154"/>
    <poly id="1068461011" type="amenity" color="237,199,199" fill="1" layer="-1.00" shape="379.279742,1039.476813 398.254749,1038.617578 397.559497,1023.349401 378.584462,1024.208636 379.279742,1039.476813"/>
    <poly id="1068461011#1" type="building" color="255,230,230" fill="1" layer="-1.00" shape="379.279742,1039.476813 398.254749,1038.617578 397.559497,1023.349401 378.584462,1024.208636 379.279742,1039.476813"/>
    <poly id="1068498174" type="building" color="255,230,230" fill="1" layer="-1.00" shape="190.994680,761.244139 194.493273,752.526093 191.726169,751.422186 194.414550,744.722007 185.797531,741.303759 183.845491,746.153394 182.543242,745.628041 183.832213,742.417295 179.475718,740.681117 175.111627,751.550838 180.502117,753.694099 181.257036,751.810035 182.865615,752.453132 180.941378,757.246951 190.994680,761.244139"/>
    <poly id="1068498175" type="building" color="255,230,230" fill="1" layer="-1.00" shape="174.796263,784.017586 178.294834,775.299534 175.527734,774.195631 178.216250,767.506531 169.589571,764.077343 167.647063,768.926851 166.344817,768.401500 167.633779,765.190752 163.277290,763.454581 158.913227,774.324309 164.303709,776.467562 165.058624,774.583497 166.667200,775.226591 164.733607,780.031629 174.796263,784.017586"/>
    <poly id="1068498176" type="building" color="255,230,230" fill="1" layer="-1.00" shape="165.280414,808.716982 168.769447,799.999056 166.002352,798.895156 168.690703,792.194969 160.073712,788.776743 158.131062,793.615168 156.819450,793.101034 158.117774,789.879068 153.761446,788.153986 149.397404,799.023720 154.787876,801.166968 155.542787,799.282902 157.141840,799.926125 155.217625,804.719950 165.280414,808.716982"/>
    <poly id="1068498177" type="building" color="255,230,230" fill="1" layer="-1.00" shape="196.655586,731.109760 200.154194,722.391717 197.387083,721.287808 200.075476,714.587631 191.458436,711.169378 189.506234,716.007926 188.204135,715.493657 189.492959,712.271828 185.136605,710.546732 180.772494,721.416449 186.162998,723.559713 186.917921,721.675650 188.526351,722.307663 186.592737,727.112696 196.655586,731.109760"/>
    <poly id="1068498178" type="building" color="255,230,230" fill="1" layer="-1.00" shape="219.992933,741.376928 223.511512,732.725141 227.341635,734.269008 230.086556,727.523714 214.766204,721.359335 212.804017,726.164756 211.396433,725.596500 212.704303,722.374411 208.414601,720.648390 204.002717,731.507667 209.460616,733.705450 210.215694,731.832474 211.690378,732.433068 209.737867,737.249443 219.992933,741.376928"/>
    <poly id="1068498179" type="building" color="255,230,230" fill="1" layer="-1.00" shape="215.987615,791.511453 217.159528,788.790143 222.686171,791.142204 225.214466,785.264662 221.670431,783.750125 226.062583,773.534165 240.659977,773.522010 240.666608,776.082990 245.580057,776.081983 245.581654,774.119583 250.618869,774.116878 250.615668,771.112376 251.520261,771.111031 251.521476,765.656267 250.182523,765.231192 250.008104,759.468409 242.441036,759.694360 241.494711,763.587775 233.782402,763.638338 233.802973,766.520646 230.565724,766.542966 230.574181,767.851103 227.089553,767.887911 227.079115,766.435673 221.219491,768.955329 214.063537,781.770354 212.836928,781.898084 211.296084,785.489243 213.115933,786.262482 211.658336,789.675107 215.987615,791.511453"/>
    <poly id="1068498180" type="building" color="255,230,230" fill="1" layer="-1.00" shape="73.361398,1116.556264 73.228984,1110.393770 76.141836,1110.331512 76.052108,1105.886900 96.356549,1105.463381 96.450450,1109.519894 99.258580,1109.459083 99.390063,1115.555069 89.204456,1115.761737 89.257814,1118.255555 84.479176,1118.354570 84.441743,1116.326182 73.361398,1116.556264"/>
    <poly id="1068498181" type="building" color="255,230,230" fill="1" layer="-1.00" shape="67.697652,1088.318262 67.565236,1082.155768 70.468575,1082.093640 70.378846,1077.649028 90.692862,1077.225369 90.777245,1081.282013 93.594903,1081.221070 93.716715,1087.306102 83.531233,1087.523859 83.584592,1090.017677 78.805941,1090.116694 78.768507,1088.088306 67.697652,1088.318262"/>
    <poly id="1068498182" type="building" color="255,230,230" fill="1" layer="-1.00" shape="42.950341,1059.278567 42.834053,1052.905200 45.756594,1052.853888 45.667007,1048.420361 87.381675,1047.646736 87.456691,1051.714596 90.264989,1051.664868 90.373317,1057.461826 78.826117,1057.676149 78.873313,1060.413963 74.884669,1060.491023 74.844184,1058.240940 59.060662,1058.524668 59.104506,1061.018617 54.040084,1061.110490 54.002493,1059.071018 42.950341,1059.278567"/>
    <poly id="1068498183" type="building" color="255,230,230" fill="1" layer="-1.00" shape="38.054637,1030.120881 37.928827,1023.747645 40.851375,1023.696332 40.761787,1019.262805 82.476571,1018.489165 82.551589,1022.557025 85.369415,1022.507165 85.468073,1028.293168 73.920840,1028.507496 73.977709,1031.256264 69.989054,1031.333326 69.948416,1029.072157 54.155482,1029.367107 54.199175,1031.849971 49.134891,1031.952931 49.097299,1029.913459 38.054637,1030.120881"/>
    <poly id="1068498184" type="building" color="255,230,230" fill="1" layer="-1.00" shape="36.055349,1004.548746 35.863201,998.198597 38.737546,998.103599 38.610639,993.726021 73.779638,992.643322 73.901649,996.666187 76.747586,996.582678 76.920884,1002.256785 67.678888,1002.539179 67.764624,1005.309724 64.119145,1005.415325 64.050555,1003.198889 48.212422,1003.671858 48.294654,1006.187453 42.974075,1006.349377 42.917899,1004.343421 36.055349,1004.548746"/>
    <poly id="1068498185" type="building" color="255,230,230" fill="1" layer="-1.00" shape="-11.974158,1071.598327 -12.090327,1065.236043 -9.177310,1065.184847 -9.257400,1060.751188 32.457073,1059.966259 32.532111,1064.034119 35.340407,1063.984376 35.448766,1069.781335 23.892057,1069.995849 23.948939,1072.744618 19.960147,1072.810615 19.919650,1070.560531 4.126624,1070.844473 4.170481,1073.338423 -0.893936,1073.430323 -0.931538,1071.390850 -11.974158,1071.598327"/>
    <poly id="1068498189" type="amenity" color="237,199,199" fill="1" layer="-1.00" shape="73.547920,1105.200712 83.027371,1104.881790 82.563523,1091.240199 73.083907,1091.548036 73.547920,1105.200712"/>
    <poly id="1068498189#1" type="building" color="255,230,230" fill="1" layer="-1.00" shape="73.547920,1105.200712 83.027371,1104.881790 82.563523,1091.240199 73.083907,1091.548036 73.547920,1105.200712"/>
    <poly id="1068498190" type="amenity" color="237,199,199" fill="1" layer="-1.00" shape="18.155834,1125.731068 67.622493,1107.765720 65.317199,1101.466825 62.730713,1102.411546 59.990206,1094.932343 58.085813,1095.623766 55.137445,1087.570906 48.429376,1090.002567 46.470546,1084.663467 6.857584,1099.067391 16.246225,1124.659753 17.591671,1124.175581 18.155834,1125.731068"/>
    <poly id="1068498190#1" type="building" color="255,230,230" fill="1" layer="-1.00" shape="18.155834,1125.731068 67.622493,1107.765720 65.317199,1101.466825 62.730713,1102.411546 59.990206,1094.932343 58.085813,1095.623766 55.137445,1087.570906 48.429376,1090.002567 46.470546,1084.663467 6.857584,1099.067391 16.246225,1124.659753 17.591671,1124.175581 18.155834,1125.731068"/>
    <poly id="1068582485" type="amenity" color="237,199,199" fill="1" layer="-1.00" shape="175.812242,1087.806628 184.017686,1087.627274 183.597557,1068.153379 175.382579,1068.332864 175.812242,1087.806628"/>
    <poly id="1068601302" type="building" color="255,230,230" fill="1" layer="-1.00" shape="358.934774,704.134143 396.990399,710.019843 398.635377,699.442554 360.589236,693.556716 358.934774,704.134143"/>
    <poly id="1068601303" type="building" color="255,230,230" fill="1" layer="-1.00" shape="423.928027,717.588268 423.490345,720.388168 433.719557,721.944058 434.016933,720.021947 436.994011,720.468910 436.705394,722.335466 443.413642,723.363173 444.962001,713.374824 425.600698,710.414274 425.994277,707.869978 406.976607,704.971267 405.525095,714.381776 411.193186,715.246352 411.419872,713.724339 415.484873,714.344838 415.187349,716.255865 423.928027,717.588268"/>
    <poly id="1068601304" type="building" color="255,230,230" fill="1" layer="-1.00" shape="421.491090,746.780199 421.463399,749.618820 427.986875,749.673408 428.007699,747.721832 431.607641,747.761116 431.585751,749.635098 441.623484,749.730155 441.713078,739.606609 422.123591,739.443093 422.154783,736.859423 402.898657,736.702453 402.819771,746.216076 408.552901,746.270415 408.560312,744.729237 412.674359,744.761457 412.653385,746.701949 421.491090,746.780199"/>
    <poly id="1068601305" type="building" color="255,230,230" fill="1" layer="-1.00" shape="428.687220,688.309030 428.010915,691.067857 438.061611,693.490980 438.521293,691.599902 441.454276,692.302470 441.003353,694.137992 447.605130,695.732595 450.003257,685.909975 430.971647,681.304032 431.584809,678.801069 412.887612,674.279263 410.624564,683.534607 416.194489,684.877270 416.564440,683.386551 420.558005,684.351726 420.098173,686.231720 428.687220,688.309030"/>
    <poly id="1068601306" type="building" color="255,230,230" fill="1" layer="-1.00" shape="331.242445,735.912497 340.769785,712.709848 318.218892,703.540300 308.691743,726.754055 331.242445,735.912497"/>
    <poly id="1068601307" type="building" color="255,230,230" fill="1" layer="-1.00" shape="344.873939,713.407391 347.109015,707.666953 333.161408,702.303981 332.121980,704.968021 328.450963,704.608228 327.613983,706.759491 344.873939,713.407391"/>
    <poly id="1068601308" type="building" color="255,230,230" fill="1" layer="-1.00" shape="259.134846,764.642518 276.957397,760.262210 273.993744,748.318010 256.161806,752.709538 259.134846,764.642518"/>
    <poly id="1068601309" type="building" color="255,230,230" fill="1" layer="-1.00" shape="22.391312,831.614889 37.684294,837.868058 41.711206,828.111599 26.418213,821.858424 22.391312,831.614889"/>
    <poly id="1068601311" type="building" color="255,230,230" fill="1" layer="-1.00" shape="44.273166,783.174407 48.396380,773.494237 75.042199,784.757724 70.808077,794.683321 60.473476,790.313163 59.993821,791.439540 52.532574,788.282669 53.113597,786.910985 44.273166,783.174407"/>
    <poly id="1068601312" type="building" color="255,230,230" fill="1" layer="-1.00" shape="37.862800,797.564729 43.727480,784.346042 52.532574,788.282669 59.993821,791.439540 68.856178,795.386480 62.991474,808.605152 37.862800,797.564729"/>
    <poly id="1068601328" type="amenity" color="237,199,199" fill="1" layer="-1.00" shape="266.662405,883.501356 285.860319,882.904954 285.544643,873.097398 285.373441,867.567395 266.175499,868.163797 266.342294,873.372341 266.662405,883.501356"/>
    <poly id="1068601328#1" type="building" color="255,230,230" fill="1" layer="-1.00" shape="266.662405,883.501356 285.860319,882.904954 285.544643,873.097398 285.373441,867.567395 266.175499,868.163797 266.342294,873.372341 266.662405,883.501356"/>
    <poly id="1068601329" type="building" color="255,230,230" fill="1" layer="-1.00" shape="200.923683,884.338404 240.485336,884.138279 240.559317,863.194132 225.828458,863.185954 225.828253,869.405701 214.782533,869.402320 214.786084,863.426438 200.893319,863.428948 200.923683,884.338404"/>
    <poly id="1068851490" type="residential" color="235,235,227" fill="1" layer="-3.00" shape="23.933025,819.098733 46.638427,828.420742 36.362360,853.208345 76.153505,866.907416 154.407788,835.153516 170.053439,821.356925 171.671633,816.467529 47.654959,767.362300 25.945548,815.190618 23.933025,819.098733"/>
    <poly id="1068851491" type="residential" color="235,235,227" fill="1" layer="-3.00" shape="171.671633,816.467529 197.665536,761.629164 208.577197,751.179441 230.117802,735.339539 255.225905,728.952119 130.385039,680.888294 124.515867,683.408135 83.955458,669.209439 82.973299,672.571193 68.064698,719.873444 60.108982,743.065831 47.654959,767.362300 171.671633,816.467529"/>
    <poly id="1068851492" type="residential" color="235,235,227" fill="1" layer="-3.00" shape="130.385039,680.888294 147.095111,601.143317 149.246845,601.812201 209.184638,613.183708 294.017121,633.814760 308.647604,647.982374 278.122512,703.680924 267.971833,717.545958 255.225905,728.952119 130.385039,680.888294"/>
    <poly id="1068851495" type="residential" color="235,235,227" fill="1" layer="-3.00" shape="517.928339,538.232249 469.037434,524.146334 453.719120,554.224553 445.568793,570.246058 424.168040,582.447067 406.020152,586.044404 401.301801,598.182780 412.547316,619.658903 403.102222,631.529557 384.890050,630.438068 372.596910,655.419281 332.836924,655.798979 317.186547,694.241501 354.080078,705.642103 344.468963,742.161231 349.486173,758.035260 387.297210,757.216715 395.319931,765.211076 396.615574,780.515353 449.167830,780.459214 447.277825,755.839030 450.908401,713.703432 459.566721,669.481035 478.829524,623.616422 517.928339,538.232249"/>
    <poly id="1068859766" type="residential" color="235,235,227" fill="1" layer="-3.00" shape="492.586288,1065.494587 529.878981,1065.149259 537.305150,1065.080653 537.119281,1002.242801 536.268828,952.042017 491.558853,952.444722 492.586288,1065.494587"/>