<?xml version="1.0" encoding="UTF-8"?>

<!-- generated on 2024-05-16 15:50:18 by Eclipse SUMO polyconvert Version 1.19.0
<configuration xmlns:xsi="http://www.w3.org/2001/XMLSchema-instance" xsi:noNamespaceSchemaLocation="http://sumo.dlr.de/xsd/polyconvertConfiguration.xsd">

    <input>
        <net-file value="../tools/tj.net.xml"/>
        <osm-files value="../tools/tj.osm"/>
    </input>

    <output>
        <output-file value="../tools/tj.poly.xml"/>
    </output>

</configuration>
-->

<additional xmlns:xsi="http://www.w3.org/2001/XMLSchema-instance" xsi:noNamespaceSchemaLocation="http://sumo.dlr.de/xsd/additional_file.xsd">
    <location netOffset="-355253.90,-3460550.47" convBoundary="-10080.75,-8096.36,6913.20,7291.22" origBoundary="121.374970,31.195934,121.551648,31.336056" projParameter="+proj=utm +zone=51 +ellps=WGS84 +datum=WGS84 +units=m +no_defs"/>

    <poly id="1005047639" type="water" color="181,209,209" fill="0" layer="-4.00" shape="2655.519561,1825.792704 2664.746100,1825.834140 2673.073326,1826.963171 2714.146055,1849.379259 2729.315445,1855.881555 2737.845844,1857.251797 2745.119533,1857.219936 2753.176206,1854.538837 2786.463690,1824.387218 2794.244956,1816.122141 2801.631514,1808.239358 2807.426980,1803.094351 2815.367395,1797.443619 2821.904542,1795.747667 2830.047474,1793.808279 2838.238583,1794.728632 2861.309548,1798.341543 2923.890651,1811.631635 2942.047827,1814.479589 2949.842261,1814.230189 2982.394504,1811.373684 3025.632637,1801.698802 3033.428613,1800.152293 3045.148529,1798.696957 3056.432569,1800.218768 3075.595193,1804.904872 3185.511303,1837.702521 3455.446687,1905.853005 3539.543238,1929.023701 3555.118143,1930.333111 3574.339922,1930.252011 3591.338683,1931.242987 3608.138334,1934.420754 3638.417408,1951.597296"/>
    <poly id="1017078983" type="leisure" color="207,245,201" fill="1" layer="-2.00" shape="2511.747902,2201.575037 2530.423183,2192.807359 2516.270660,2162.953883 2497.585967,2171.732799 2511.747902,2201.575037"/>
    <poly id="1017078983#1" type="sport" color="79,230,125" fill="1" layer="-2.00" shape="2511.747902,2201.575037 2530.423183,2192.807359 2516.270660,2162.953883 2497.585967,2171.732799 2511.747902,2201.575037"/>
    <poly id="1017078984" type="leisure" color="207,245,201" fill="1" layer="-2.00" shape="2497.585967,2171.732799 2516.270660,2162.953883 2502.049775,2132.979395 2483.374557,2141.758205 2497.585967,2171.732799"/>
    <poly id="1017078984#1" type="sport" color="79,230,125" fill="1" layer="-2.00" shape="2497.585967,2171.732799 2516.270660,2162.953883 2502.049775,2132.979395 2483.374557,2141.758205 2497.585967,2171.732799"/>
    <poly id="1047780201" type="residential" color="235,235,227" fill="1" layer="-3.00" shape="2750.143810,1583.851874 2784.395494,1662.271109 2810.624910,1657.215710 2822.340156,1647.655766 2839.272355,1614.088991 2807.866765,1576.441522 2798.380997,1569.917693 2788.143297,1567.639185 2750.143810,1583.851874"/>
    <poly id="1047780202" type="residential" color="235,235,227" fill="1" layer="-3.00" shape="2809.914995,1733.590994 2794.121000,1680.898437 2721.091416,1692.751083 2697.319637,1709.846963 2686.244864,1721.693354 2674.227810,1739.894146 2665.481637,1772.541114 2718.773712,1754.391656 2764.811970,1740.553543 2809.914995,1733.590994"/>
    <poly id="1047780203" type="residential" color="235,235,227" fill="1" layer="-3.00" shape="2824.079145,1346.604332 2798.722382,1338.088743 2726.602271,1313.874752 2797.887503,1202.364754 2825.146899,1213.548726 2815.683044,1244.597616 2800.930402,1294.343775 2832.615651,1309.647641 2824.079145,1346.604332"/>
    <poly id="1047780204" type="residential" color="235,235,227" fill="1" layer="-3.00" shape="2692.447676,1448.963420 2671.368172,1401.187445 2703.084487,1348.406624 2815.866690,1382.170809 2798.525034,1401.674022 2692.447676,1448.963420"/>
    <poly id="1047780210" type="residential" color="235,235,227" fill="1" layer="-3.00" shape="2837.629091,1138.100925 2884.938457,1172.329592 2873.345999,1195.956871 2861.929395,1212.863212 2956.563292,1253.614918 3039.411512,1299.515519 3062.533289,1264.479816 3106.582309,1189.094377 3113.636534,1172.757148 3119.054943,1155.854389 3101.090649,1148.324868 3095.316749,1150.165542 3084.072797,1155.195383 3071.765355,1156.913560 3045.950963,1198.471306 3009.741594,1174.602366 3029.437244,1143.204954 3023.807431,1142.316382 2986.872339,1121.838764 2963.190013,1155.562868 2934.483116,1131.670489 2865.863740,1089.669408 2837.629091,1138.100925"/>
    <poly id="1047780211" type="commercial" color="209,209,204" fill="1" layer="-3.00" shape="2837.629091,1138.100925 2818.803424,1164.786178 2873.345999,1195.956871 2884.938457,1172.329592 2837.629091,1138.100925"/>
    <poly id="1047780212" type="school" color="237,199,199" fill="1" layer="-2.00" shape="2703.084487,1348.406624 2726.602271,1313.874752 2798.722382,1338.088743 2824.079145,1346.604332 2815.866690,1382.170809 2703.084487,1348.406624"/>
    <poly id="1047780213" type="landuse" color="194,194,130" fill="1" layer="-3.00" shape="2397.519951,463.351318 2383.686480,480.401780 2309.612066,571.696718 2392.201635,635.135372 2454.316571,544.568452 2478.800686,500.444056 2458.615798,492.191737 2417.409032,473.658586 2397.519951,463.351318"/>
    <poly id="1047780214" type="landuse" color="194,194,130" fill="1" layer="-3.00" shape="2772.294031,700.214337 2702.519010,639.903380 2694.496648,628.293168 2690.859473,609.306391 2697.761227,571.850668 2809.409473,592.969426 2793.269501,664.852330 2787.365013,681.706394 2772.294031,700.214337"/>
    <poly id="1047780215" type="landuse" color="194,194,130" fill="1" layer="-3.00" shape="2988.041619,725.238841 2997.102945,693.918442 3029.366822,703.305919 3048.718609,645.637673 3277.207639,712.426264 3281.593388,714.961488 3286.181784,718.403095 3287.437473,725.381910 3271.747589,778.587820 3167.004479,750.996334 3116.814783,736.960903 3105.918241,774.847111 3073.607257,766.180686 3041.840968,757.662223 3046.240545,742.868583 2988.041619,725.238841"/>
    <poly id="1047780216" type="commercial" color="209,209,204" fill="1" layer="-3.00" shape="2988.041619,725.238841 2957.504752,716.814898 2981.573106,626.953446 3048.718609,645.637673 3029.366822,703.305919 2997.102945,693.918442 2988.041619,725.238841"/>
    <poly id="1047780222" type="landuse" color="194,194,130" fill="1" layer="-3.00" shape="2764.217856,553.590277 2782.242317,483.045540 2937.572818,515.648871 2952.519399,513.983643 2958.929007,510.537837 2975.516154,490.025205 3014.934288,508.762014 2996.330958,554.867820 2980.698958,603.106568 2764.217856,553.590277"/>
    <poly id="1047780223" type="residential" color="235,235,227" fill="1" layer="-3.00" shape="2392.201635,635.135372 2439.247154,672.104204 2477.329461,625.932973 2492.367284,635.940214 2499.261976,626.844379 2545.750939,661.415379 2560.121035,647.428897 2560.250773,638.724028 2561.062849,584.055270 2561.696146,542.205240 2561.804016,534.698039 2555.809931,532.251396 2550.773302,530.190919 2517.676858,583.866594 2454.316571,544.568452 2392.201635,635.135372"/>
    <poly id="1047780224" type="commercial" color="209,209,204" fill="1" layer="-3.00" shape="2454.316571,544.568452 2478.800686,500.444056 2550.773302,530.190919 2517.676858,583.866594 2454.316571,544.568452"/>
    <poly id="1047780225" type="residential" color="235,235,227" fill="1" layer="-3.00" shape="2439.247154,672.104204 2538.765044,748.873711 2595.778484,677.445951 2565.476382,651.935238 2560.121035,647.428897 2545.750939,661.415379 2499.261976,626.844379 2492.367284,635.940214 2477.329461,625.932973 2439.247154,672.104204"/>
    <poly id="1047780226" type="residential" color="235,235,227" fill="1" layer="-3.00" shape="2309.612066,571.696718 2266.178355,538.515459 2350.404167,430.408082 2390.675161,458.565899 2397.519951,463.351318 2383.686480,480.401780 2309.612066,571.696718"/>
    <poly id="1047780227" type="residential" color="235,235,227" fill="1" layer="-3.00" shape="2256.223445,550.147492 2216.714907,591.516156 2260.114696,622.901611 2296.907364,581.381468 2256.223445,550.147492"/>
    <poly id="1047780228" type="commercial" color="209,209,204" fill="1" layer="-3.00" shape="2260.114696,622.901611 2292.818232,654.099695 2328.733433,605.451677 2296.907364,581.381468 2260.114696,622.901611"/>
    <poly id="1047780229" type="school" color="237,199,199" fill="1" layer="-2.00" shape="2135.758965,653.414967 2206.360805,598.985027 2216.714907,591.516156 2260.114696,622.901611 2292.818232,654.099695 2311.436596,671.131489 2194.292682,771.326629 2135.758965,653.414967"/>
    <poly id="1047780230" type="commercial" color="209,209,204" fill="1" layer="-3.00" shape="2080.230023,1303.533976 2137.949945,1436.024403 2328.525976,1350.597373 2363.116298,1334.329619 2350.794814,1308.309697 2328.363119,1319.634172 2283.418106,1229.576040 2246.058743,1245.992486 2129.000289,1298.658511 2109.564892,1290.119567 2080.230023,1303.533976"/>
    <poly id="1047780231" type="school" color="237,199,199" fill="1" layer="-2.00" shape="2363.116298,1334.329619 2383.868030,1376.776747 2358.304841,1388.875349 2348.540340,1394.129857 2328.525976,1350.597373 2363.116298,1334.329619"/>
    <poly id="1047780232" type="residential" color="235,235,227" fill="1" layer="-3.00" shape="2348.540340,1394.129857 2369.879395,1438.464835 2406.196611,1422.473138 2383.868030,1376.776747 2358.304841,1388.875349 2348.540340,1394.129857"/>
    <poly id="1051527986" type="building" color="255,230,230" fill="1" layer="-1.00" shape="247.539268,983.612960 252.936469,973.793319 257.277700,973.733592 262.996991,982.480077 271.849812,976.748319 264.943893,966.188816 259.016875,970.028815 258.839931,964.088673 266.635339,963.859472 266.351413,954.295387 242.479786,955.000771 242.762971,964.509432 250.282293,964.284018 250.476387,970.778269 245.832899,968.247824 239.729704,979.352176 247.539268,983.612960"/>
    <poly id="1051527987" type="residential" color="235,235,227" fill="1" layer="-3.00" shape="618.191874,1190.933233 611.678611,970.981335 595.366865,971.637601 593.091539,918.252254 548.444155,919.064730 549.085794,940.830553 468.529052,942.901467 475.442653,962.352670 534.068718,1076.684753 563.894994,1192.765094 571.089552,1192.477840 618.191874,1190.933233"/>
    <poly id="1051527988" type="residential" color="235,235,227" fill="1" layer="-3.00" shape="360.251524,1205.230833 549.252185,1193.587013 515.644566,1078.822542 428.603203,925.589058 323.341023,926.603648 317.599987,926.660423 248.275186,918.755576 251.077815,946.667081 271.506062,948.991461 276.466949,980.132829 267.121867,983.997669 265.635272,984.605726 264.236016,998.483597 239.767142,1002.833711 269.225277,1114.051297 348.065435,1110.494572 350.454549,1176.218092 360.251524,1205.230833"/>
    <poly id="1051527989" type="leisure" color="207,245,201" fill="1" layer="-2.00" shape="549.252185,1193.587013 563.894994,1192.765094 534.068718,1076.684753 475.442653,962.352670 468.529052,942.901467 459.287066,925.167463 428.603203,925.589058 515.644566,1078.822542 549.252185,1193.587013"/>
    <poly id="1051527990" type="building" color="255,230,230" fill="1" layer="-1.00" shape="567.391236,949.448739 572.788747,939.629274 577.129987,939.569680 582.849020,948.316330 591.702031,942.584849 584.796424,932.025147 578.869278,935.864960 578.692668,929.935905 586.488097,929.706943 586.204311,920.131776 562.323102,920.836559 562.605996,930.345218 570.134857,930.119904 570.328753,936.614153 565.685487,934.094654 559.581789,945.187721 567.391236,949.448739"/>
    <poly id="1051527991" type="building" color="255,230,230" fill="1" layer="-1.00" shape="586.158040,1003.472478 591.565057,993.652892 595.906275,993.593304 601.625265,1002.339963 610.468870,996.619712 603.563163,986.048914 597.645562,989.888587 597.468962,983.959531 605.254830,983.730712 604.971060,974.155545 581.099494,974.860160 581.382374,984.368819 588.901675,984.143647 589.095560,990.637897 584.461843,988.118260 578.348640,999.211448 586.158040,1003.472478"/>
    <poly id="1051527992" type="building" color="255,230,230" fill="1" layer="-1.00" shape="373.198512,1201.571545 378.605221,1191.751835 382.946360,1191.692156 388.665437,1200.438704 397.508609,1194.707177 390.602950,1184.147598 384.685537,1187.987399 384.508813,1182.058341 392.294537,1181.829359 392.010566,1172.254187 368.139441,1172.959303 368.422519,1182.467966 375.941682,1182.242637 376.135704,1188.736889 371.502014,1186.217346 365.389159,1197.310675 373.198512,1201.571545"/>
    <poly id="1051527993" type="building" color="255,230,230" fill="1" layer="-1.00" shape="574.108297,1058.639903 579.515271,1048.820308 583.856466,1048.760715 589.575439,1057.507367 598.418838,1051.776019 591.513303,1041.216314 585.595739,1045.055995 585.418978,1039.115854 593.204806,1038.887025 592.921175,1029.322941 569.049734,1030.027588 569.332474,1039.525164 576.851888,1039.311067 577.045782,1045.805317 572.411933,1043.274601 566.298931,1054.378883 574.108297,1058.639903"/>
    <poly id="1051527994" type="building" color="255,230,230" fill="1" layer="-1.00" shape="589.617154,1105.634943 595.024115,1095.815355 599.365290,1095.755767 605.084228,1104.502427 613.927593,1098.771090 607.022102,1088.211376 601.104560,1092.051050 600.927808,1086.110908 608.713600,1085.882089 608.429981,1076.318005 584.558649,1077.022621 584.841528,1086.531281 592.360756,1086.306110 592.554642,1092.800360 587.920816,1090.269638 581.807829,1101.373913 589.617154,1105.634943"/>
    <poly id="1051527995" type="building" color="255,230,230" fill="1" layer="-1.00" shape="567.675151,1146.990888 573.072548,1137.171418 577.413706,1137.111820 583.132642,1145.858468 591.975960,1140.127111 585.079991,1129.567281 579.152961,1133.407099 578.976195,1127.466957 586.761957,1127.238120 586.478317,1117.674035 562.607077,1118.378705 562.889826,1127.876281 570.409177,1127.662177 570.603077,1134.156428 565.969263,1131.625716 559.856325,1142.730006 567.675151,1146.990888"/>
    <poly id="1051527996" type="building" color="255,230,230" fill="1" layer="-1.00" shape="590.402345,1187.112743 595.799740,1177.293284 600.140881,1177.233695 605.859778,1185.980355 614.712592,1180.248885 607.807150,1169.689171 601.880136,1173.528977 601.703382,1167.588835 609.498634,1167.359884 609.215013,1157.795798 585.334346,1158.500550 585.626747,1168.009081 593.145917,1167.783907 593.339804,1174.278159 588.696493,1171.747568 582.593078,1182.851714 590.402345,1187.112743"/>
    <poly id="1051527997" type="building" color="255,230,230" fill="1" layer="-1.00" shape="477.561941,961.358998 528.183454,960.142652 527.876186,947.474566 477.254916,948.713080 477.561941,961.358998"/>
    <poly id="1051527998" type="building" color="255,230,230" fill="1" layer="-1.00" shape="490.976716,988.958460 541.830317,987.317684 541.417885,974.617781 490.563918,976.236387 490.976716,988.958460"/>
    <poly id="1051527999" type="building" color="255,230,230" fill="1" layer="-1.00" shape="503.799507,1015.058251 554.662500,1013.417402 554.249931,1000.706414 503.386724,1002.336178 503.799507,1015.058251"/>
    <poly id="1051528000" type="building" color="255,230,230" fill="1" layer="-1.00" shape="531.162682,960.057394 544.174575,959.712422 543.997421,953.051639 530.985519,953.396611 531.162682,960.057394"/>
    <poly id="1051528001" type="school" color="237,199,199" fill="1" layer="-2.00" shape="204.684284,1259.224372 303.166958,1226.604230 290.224712,1186.303990 321.659344,1176.137331 350.454549,1176.218092 348.065435,1110.494572 269.225277,1114.051297 225.572537,1142.801582 242.227042,1194.059965 189.753452,1212.831637 204.684284,1259.224372"/>
    <poly id="1054157958" type="building" color="255,230,230" fill="1" layer="-1.00" shape="340.415715,1038.213429 348.927062,1038.118572 348.899089,1035.391581 361.837476,1035.246953 361.932205,1044.214946 358.438148,1044.251897 358.498356,1050.016254 332.497246,1050.262898 332.379601,1036.860462 330.246928,1036.878702 330.218854,1032.067376 325.819918,1032.083520 325.802346,1026.651184 318.670654,1026.671651 318.664482,1019.298951 313.122659,1019.297557 313.116110,1012.590076 328.370376,1012.590949 328.365635,1018.478155 332.174477,1018.481213 332.167835,1024.922789 336.928999,1024.934928 336.921053,1030.589352 341.377568,1030.605682 341.365587,1036.659290 340.415715,1038.213429"/>
    <poly id="1054157961" type="building" color="255,230,230" fill="1" layer="-1.00" shape="305.379290,1223.380773 336.718538,1212.516992 335.717535,1209.659251 355.176035,1203.127587 351.803351,1193.982926 332.448878,1201.156204 333.097793,1204.029874 302.317069,1213.965769 305.379290,1223.380773"/>
    <poly id="1054157962" type="building" color="255,230,230" fill="1" layer="-1.00" shape="346.557738,1099.871885 374.776985,1098.907387 373.639861,1066.061472 345.430046,1067.025838 346.557738,1099.871885"/>
    <poly id="1054157963" type="building" color="255,230,230" fill="1" layer="-1.00" shape="409.834429,1068.258070 409.637916,1060.887989 429.817148,1060.355669 429.992854,1066.905606 435.865874,1066.758379 436.267394,1082.119289 429.166590,1082.305562 429.106649,1080.022487 423.033866,1080.183550 422.703541,1067.925990 409.834429,1068.258070"/>
    <poly id="1054157964" type="landuse" color="194,194,130" fill="1" layer="-3.00" shape="225.572537,1142.801582 269.225277,1114.051297 239.767142,1002.833711 224.610838,977.431533 219.503981,982.745913 215.054426,985.312786 210.528316,987.160067 205.634458,987.194159 200.728701,986.363639 194.946837,984.835618 190.034883,982.863237 179.933498,991.273110 122.716056,991.306977 125.084173,1041.575652 131.792180,1055.042563 140.246748,1067.421086 145.911281,1079.793682 172.088572,1160.822237 225.572537,1142.801582"/>
    <poly id="1057597659" type="building" color="255,230,230" fill="1" layer="-1.00" shape="2584.619229,2187.450090 2579.017751,2175.962423 2600.319320,2165.673678 2598.967863,2162.898107 2629.757253,2148.057327 2631.520061,2151.681016 2655.782752,2139.988628 2661.051659,2150.826712 2635.303946,2163.237660 2636.694821,2166.112484 2607.712212,2180.086185 2606.223588,2177.024213 2584.619229,2187.450090"/>
    <poly id="1057597660" type="building" color="255,230,230" fill="1" layer="-1.00" shape="2553.706233,2123.565366 2548.337654,2112.407163 2570.568452,2101.828607 2568.961675,2098.479983 2598.684863,2084.340943 2600.536516,2088.196247 2626.939253,2075.632227 2632.219689,2086.614270 2606.327856,2098.938539 2607.591696,2101.571169 2577.736030,2115.767415 2576.315525,2112.815393 2553.706233,2123.565366"/>
    <poly id="1057597661" type="building" color="255,230,230" fill="1" layer="-1.00" shape="2521.538111,2101.993842 2511.304920,2079.637379 2509.894975,2080.277343 2507.236282,2074.481711 2549.336473,2055.407521 2553.810394,2065.180907 2552.031449,2065.992165 2560.439803,2084.371047 2521.538111,2101.993842"/>
    <poly id="1057597662" type="building" color="255,230,230" fill="1" layer="-1.00" shape="2558.863718,2072.041708 2553.214833,2059.168846 2580.900373,2047.119503 2579.299208,2043.482545 2580.359353,2043.024717 2579.170754,2040.324549 2585.938253,2037.372514 2587.009169,2039.819279 2590.899344,2038.125757 2598.267032,2054.889001 2558.863718,2072.041708"/>
    <poly id="1057597663" type="building" color="255,230,230" fill="1" layer="-1.00" shape="2629.381544,2223.685406 2623.902380,2212.085195 2707.678283,2172.868210 2713.157070,2184.446292 2629.381544,2223.685406"/>
    <poly id="1057597664" type="building" color="255,230,230" fill="1" layer="-1.00" shape="2644.834131,2140.014872 2641.096315,2131.861245 2638.153427,2133.198236 2627.086629,2109.023638 2628.875091,2108.212264 2624.254269,2098.130409 2635.770492,2092.907846 2642.304405,2107.165702 2646.013849,2105.485732 2652.999125,2120.735295 2647.908145,2123.043736 2653.814349,2135.946420 2644.834131,2140.014872"/>
    <poly id="1057597665" type="building" color="255,230,230" fill="1" layer="-1.00" shape="2512.294089,2049.345943 2509.934091,2043.812347 2506.895400,2045.106326 2497.466249,2023.071584 2513.521633,2016.268494 2522.646048,2037.597823 2519.408502,2038.972099 2522.073052,2045.200039 2512.294089,2049.345943"/>
    <poly id="1057597666" type="building" color="255,230,230" fill="1" layer="-1.00" shape="2476.029164,1992.463175 2474.136519,1988.397797 2468.478260,1991.002267 2458.544711,1969.695033 2465.773563,1966.359717 2456.418452,1946.286366 2458.916371,1945.132745 2457.661245,1942.444578 2475.108764,1934.380847 2477.265948,1938.996980 2479.839574,1937.809078 2488.213880,1955.767074 2494.127531,1953.037200 2504.021742,1974.256304 2499.508540,1976.346337 2501.528681,1980.687162 2476.029164,1992.463175"/>
    <poly id="1057597667" type="building" color="255,230,230" fill="1" layer="-1.00" shape="2532.556438,1984.113924 2529.073493,1976.511219 2522.440138,1979.527993 2506.537252,1944.886569 2511.826846,1942.475591 2507.127589,1932.239628 2536.291740,1918.972777 2560.405249,1971.452551 2532.556438,1984.113924"/>
    <poly id="1057597668" type="water" color="181,209,209" fill="1" layer="-4.00" shape="2656.229397,2011.198471 2678.093037,2003.718343 2658.409079,1938.694659 2744.378459,1913.650576 2731.084359,1896.557194 2590.960527,1936.470165 2598.026018,1955.521380 2638.137183,1944.202001 2656.229397,2011.198471"/>
    <poly id="1057597669" type="building" color="255,230,230" fill="1" layer="-1.00" shape="2559.062310,1938.376673 2555.440758,1929.678245 2579.764645,1919.658983 2583.386179,1928.357418 2559.062310,1938.376673"/>
    <poly id="1057597670" type="building" color="255,230,230" fill="1" layer="-1.00" shape="2569.063723,1971.035945 2562.580322,1957.708735 2567.811304,1955.187711 2574.304218,1968.514796 2569.063723,1971.035945"/>
    <poly id="1057597671" type="building" color="255,230,230" fill="1" layer="-1.00" shape="2587.219546,1982.231648 2583.833398,1974.040017 2592.941993,1970.302385 2596.337654,1978.493891 2587.219546,1982.231648"/>
    <poly id="1057597672" type="building" color="255,230,230" fill="1" layer="-1.00" shape="2575.792965,1972.286317 2574.440128,1969.410985 2577.732716,1967.880767 2575.987550,1964.157066 2585.770732,1959.612045 2588.859210,1966.211210 2575.792965,1972.286317"/>
    <poly id="1057597673" type="building" color="255,230,230" fill="1" layer="-1.00" shape="2737.848053,2211.452262 2733.445043,2201.977191 2799.147645,2171.675333 2803.569643,2181.150172 2737.848053,2211.452262"/>
    <poly id="1057597674" type="building" color="255,230,230" fill="1" layer="-1.00" shape="2743.804560,2228.789023 2738.689956,2218.791411 2806.829652,2184.254738 2811.934535,2194.241426 2743.804560,2228.789023"/>
    <poly id="1057609869" type="building" color="255,230,230" fill="1" layer="-1.00" shape="2797.266052,1967.737304 2776.915137,1921.636495 2820.218075,1902.713488 2840.559307,1948.814502 2797.266052,1967.737304"/>
    <poly id="1057609870" type="building" color="255,230,230" fill="1" layer="-1.00" shape="2803.383770,1951.223985 2791.942419,1927.497764 2811.789362,1918.016317 2823.230676,1941.742558 2803.383770,1951.223985"/>
    <poly id="1057609871" type="building" color="255,230,230" fill="1" layer="-1.00" shape="2719.080437,1972.020992 2715.712237,1965.148407 2761.937236,1942.660017 2765.314930,1949.532487 2719.080437,1972.020992"/>
    <poly id="1057609872" type="building" color="255,230,230" fill="1" layer="-1.00" shape="2699.968535,1958.409999 2697.310594,1951.960194 2705.169598,1948.749562 2707.827535,1955.199369 2699.968535,1958.409999"/>
    <poly id="1057609873" type="building" color="255,230,230" fill="1" layer="-1.00" shape="2706.580993,1947.510921 2702.878553,1940.565254 2710.346749,1936.617100 2714.049185,1943.562769 2706.580993,1947.510921"/>
    <poly id="1057609874" type="building" color="255,230,230" fill="1" layer="-1.00" shape="2723.468980,1938.191288 2719.178446,1930.000766 2748.762063,1914.644530 2753.052279,1922.812894 2723.468980,1938.191288"/>
    <poly id="1057609875" type="leisure" color="207,245,201" fill="1" layer="-2.00" shape="2848.438152,1944.251126 2838.805246,1923.294283 2866.767884,1910.565691 2876.400593,1931.511472 2848.438152,1944.251126"/>
    <poly id="1057609875#1" type="sport" color="79,230,125" fill="1" layer="-2.00" shape="2848.438152,1944.251126 2838.805246,1923.294283 2866.767884,1910.565691 2876.400593,1931.511472 2848.438152,1944.251126"/>
    <poly id="1057609876" type="leisure" color="207,245,201" fill="1" layer="-2.00" shape="2838.796406,1922.640283 2829.173132,1901.694404 2857.135819,1888.965788 2866.759046,1909.911690 2838.796406,1922.640283"/>
    <poly id="1057609876#1" type="sport" color="79,230,125" fill="1" layer="-2.00" shape="2838.796406,1922.640283 2829.173132,1901.694404 2857.135819,1888.965788 2866.759046,1909.911690 2838.796406,1922.640283"/>
    <poly id="1057609877" type="building" color="255,230,230" fill="1" layer="-1.00" shape="2721.818014,2007.583613 2717.035567,1997.514994 2771.198278,1972.014517 2775.990201,1982.083030 2721.818014,2007.583613"/>
    <poly id="1057609878" type="building" color="255,230,230" fill="1" layer="-1.00" shape="2657.230566,2121.043886 2646.956308,2098.443952 2678.591890,2084.201649 2688.866090,2106.801612 2657.230566,2121.043886"/>
    <poly id="1057609879" type="building" color="255,230,230" fill="1" layer="-1.00" shape="2638.113923,2081.046521 2634.714891,2074.008075 2672.004667,2056.152533 2675.413198,2063.190861 2638.113923,2081.046521"/>
    <poly id="1057609880" type="building" color="255,230,230" fill="1" layer="-1.00" shape="2742.964124,2098.386560 2735.071713,2079.412969 2770.548857,2064.797470 2778.441212,2083.771086 2742.964124,2098.386560"/>
    <poly id="1057609881" type="building" color="255,230,230" fill="1" layer="-1.00" shape="2655.196401,1913.770702 2651.844503,1901.775820 2710.086028,1885.676869 2712.927932,1895.871520 2677.129502,1905.779650 2677.629768,1907.568940 2655.196401,1913.770702"/>
    <poly id="1057609882" type="building" color="255,230,230" fill="1" layer="-1.00" shape="2639.556760,1906.288155 2647.496672,1904.129631 2635.988666,1862.144530 2628.048723,1864.303061 2639.556760,1906.288155"/>
    <poly id="1057609883" type="building" color="255,230,230" fill="1" layer="-1.00" shape="2845.936597,1870.469198 2844.418930,1866.664774 2842.041710,1867.594933 2839.124798,1860.294915 2895.814844,1837.854185 2898.387011,1844.305193 2895.129273,1845.602013 2896.597530,1849.274070 2892.496764,1850.892710 2893.708832,1853.925195 2888.471587,1855.991577 2887.200605,1852.826847 2882.664199,1854.617679 2883.906175,1857.749541 2878.896200,1859.724162 2877.624766,1856.526179 2874.300698,1857.846075 2873.443156,1855.684656 2867.940722,1857.854413 2868.926361,1860.335617 2864.361552,1862.137928 2865.771054,1865.688821 2860.562229,1867.743746 2859.301058,1864.601060 2856.099998,1865.863866 2857.351500,1868.995596 2851.546105,1871.291411 2850.501399,1868.666878 2845.936597,1870.469198"/>
    <poly id="1057609884" type="building" color="255,230,230" fill="1" layer="-1.00" shape="2937.320290,1907.151216 2917.354763,1863.461875 2947.230229,1849.942683 2967.195651,1893.632077 2937.320290,1907.151216"/>
    <poly id="1057609885" type="building" color="255,230,230" fill="1" layer="-1.00" shape="2836.953221,2166.629711 2831.439037,2155.240525 2918.334578,2113.588370 2923.858653,2125.010724 2836.953221,2166.629711"/>
    <poly id="1057609886" type="building" color="255,230,230" fill="1" layer="-1.00" shape="2828.007225,2185.908602 2824.210057,2177.578332 2941.741914,2124.536320 2945.529335,2132.855674 2828.007225,2185.908602"/>
    <poly id="1057609887" type="building" color="255,230,230" fill="1" layer="-1.00" shape="2929.095749,2129.285989 2926.414821,2123.235568 2941.861368,2116.463537 2944.542288,2122.513961 2929.095749,2129.285989"/>
    <poly id="1057609888" type="building" color="255,230,230" fill="1" layer="-1.00" shape="2940.799764,2113.994440 2937.792666,2106.351927 2971.263046,2093.294197 2974.279791,2100.947675 2940.799764,2113.994440"/>
    <poly id="1057609889" type="building" color="255,230,230" fill="1" layer="-1.00" shape="2714.982480,2108.255385 2694.145260,2059.999379 2710.048391,2053.198653 2730.876178,2101.465901 2714.982480,2108.255385"/>
    <poly id="1057609890" type="building" color="255,230,230" fill="1" layer="-1.00" shape="2471.039813,2146.992035 2458.129252,2118.873510 2469.162606,2113.856866 2482.073143,2141.975404 2471.039813,2146.992035"/>
    <poly id="1057609891" type="building" color="255,230,230" fill="1" layer="-1.00" shape="2715.943887,2156.092938 2713.416874,2150.871992 2718.714273,2148.339054 2717.058905,2144.913461 2722.923855,2142.106764 2724.726056,2145.829715 2732.851676,2141.928109 2731.049777,2138.227326 2738.229492,2134.781992 2740.178375,2138.791218 2744.671760,2136.646121 2742.938297,2133.077452 2748.396486,2130.464748 2750.208200,2134.187574 2755.656871,2131.575003 2753.795915,2127.730887 2759.481219,2125.015335 2761.391119,2128.958572 2766.083064,2126.711017 2763.996874,2122.404301 2770.637619,2119.232363 2772.635885,2123.373968 2776.542845,2121.513985 2779.853397,2128.354106 2775.899293,2130.247985 2777.868249,2134.334553 2770.404598,2137.905654 2768.259198,2133.444523 2764.976757,2135.018893 2766.935748,2139.072333 2760.228834,2142.278430 2758.015298,2137.707354 2753.521911,2139.852446 2755.422141,2143.784725 2748.403052,2147.139180 2746.551615,2143.294936 2742.890815,2145.051820 2744.565662,2148.510414 2737.594025,2151.853148 2735.723246,2147.986994 2727.360852,2151.980496 2729.055491,2155.494254 2723.881092,2157.970088 2721.657424,2153.354810 2715.943887,2156.092938"/>
    <poly id="1057609892" type="building" color="255,230,230" fill="1" layer="-1.00" shape="2741.298705,2116.037072 2738.007086,2108.487152 2775.784467,2092.188620 2779.076363,2099.760720 2741.298705,2116.037072"/>
    <poly id="1057609893" type="building" color="255,230,230" fill="1" layer="-1.00" shape="2807.149264,2078.327326 2772.205504,2005.660357 2785.326675,1999.418453 2820.251322,2072.085720 2807.149264,2078.327326"/>