<?xml version="1.0" encoding="UTF-8"?>

<!-- generated on 2024-05-16 15:50:12.816233 by randomTrips.py v1_19_0+0000-baa66a0f364
<configuration>
    <net-file value="../tools/tj.net.xml"/>
    <route-file value="../tools/tj.rou.xml"/>
    <length value="True"/>
    <end value="100.0"/>
</configuration>
-->

<!-- generated on 2024-05-16 15:50:12 by Eclipse SUMO duarouter Version 1.19.0
<configuration xmlns:xsi="http://www.w3.org/2001/XMLSchema-instance" xsi:noNamespaceSchemaLocation="http://sumo.dlr.de/xsd/duarouterConfiguration.xsd">

    <input>
        <net-file value="../tools/tj.net.xml"/>
        <route-files value="trips.trips.xml"/>
    </input>

    <output>
        <output-file value="../tools/tj.rou.xml"/>
        <alternatives-output value="NUL"/>
    </output>

    <time>
        <begin value="0"/>
        <end value="100.0"/>
    </time>

    <report>
        <no-warnings value="true"/>
        <ignore-errors value="true"/>
        <no-step-log value="true"/>
    </report>

</configuration>
-->

<routes xmlns:xsi="http://www.w3.org/2001/XMLSchema-instance" xsi:noNamespaceSchemaLocation="http://sumo.dlr.de/xsd/routes_file.xsd">
    <vehicle id="1" depart="1.00">
        <route edges="1201484854#1 1201643771 1201484853 428147190#0 428147190#1 428147190#2 1131988466#2 1131988466#3 1131988465#0"/>
    </vehicle>
    <vehicle id="2" depart="2.00">
        <route edges="428147190#1"/>
    </vehicle>
    <vehicle id="3" depart="3.00">
        <route edges="50773677#3 50773677#4 50773677#5 50773677#6 1254816437 1077974661#1 1124090095 1124090094 1077974662 1272508514 1272508532 1078939204 1078939194#1 1078939194#2 1078939194#3"/>
    </vehicle>
    <vehicle id="5" depart="5.00">
        <route edges="1131988411#3 482847293 1131988465#1 1131988465#2 1255166904#0 1255166904#1 1255166904#2 1255166904#3 1255166904#4 136752711#1 136752711#2 136752711#3 136752711#4 136752711#5 136752711#6 136752711#7 136752711#8 136752711#9 136752711#10 1131988411#0 1131988411#1 136752700 136752696 136752713"/>
    </vehicle>
    <vehicle id="6" depart="6.00">
        <route edges="1073536007#3 136752711#1 136752711#2 136752711#3 136752711#4 136752711#5 136752711#6 136752711#7 136752711#8 136752711#9 136752711#10 1131988411#0 1131988411#1 1131988411#2 1131988411#3 1131988411#4 1131988411#5 1131988411#6 1131988410#0"/>
    </vehicle>
    <vehicle id="8" depart="8.00">
        <route edges="1131988411#5 1131988411#6 1131988410#0 1131988466#2 1131988466#3 1131988465#0 1131988465#1 1131988465#2 1255166904#0 1255166904#1 1255166904#2 1255166904#3 1255166904#4 24474354#1 24474354#2 24474354#3"/>
    </vehicle>
    <vehicle id="11" depart="11.00">
        <route edges="1255166904#4 39692894#0 39692894#1 39692894#2 39692894#3 39692894#4 39692894#5 39692894#6 39692894#7 39692894#8 39692894#9 39692894#10 39692894#11 1092843304#0"/>
    </vehicle>
    <vehicle id="12" depart="12.00">
        <route edges="71461988#0 71461988#1 71461988#2 71461988#3 71461988#4 71461993 1131988466#0 50773677#2 50773677#3 50773677#4 50773677#5 50773677#6 1254816437 1077974661#1 1124090095 1124090094 1077974662 1272508514"/>
    </vehicle>
    <vehicle id="13" depart="13.00">
        <route edges="1078939195"/>
    </vehicle>
    <vehicle id="14" depart="14.00">
        <route edges="50773677#0 1131988466#2 1131988466#3 1131988465#0 1131988465#1 1131988465#2 1255166904#0 1255166904#1 1255166904#2 1255166904#3 1255166904#4 39675267#0"/>
    </vehicle>
    <vehicle id="19" depart="19.00">
        <route edges="50773677#2 50773677#3 50773677#4 50773677#5 50773677#6 1254816437 1077974661#1 1124090095 1124090094 1077974662 1272508514 1272508532 1078939204 1078939195 1073536007#0 1073536007#1 1073536007#2 1073536007#3 24474354#1"/>
    </vehicle>
    <vehicle id="20" depart="20.00">
        <route edges="39692894#3 39692894#4 39692894#5 39692894#6 39692894#7 39692894#8 39692894#9 39692894#10 39692894#11 1092843304#0 1078939194#1 1078939194#2 1078939194#3 1077974676#0 1077974676#1 1077974676#2 1231937649 1077974673 1231937648#0 1231937648#1 1077974661#1 1124090095 1124090094 1077974662"/>
    </vehicle>
    <vehicle id="21" depart="21.00">
        <route edges="1131988465#0 1131988465#1 1131988465#2 1255166904#0 1255166904#1 1255166904#2 1255166904#3 1255166904#4 39692894#0 39692894#1 39692894#2 39692894#3 39692894#4 39692894#5 39692894#6 39692894#7 39692894#8 39692894#9 39692894#10 39692894#11 1092843304#0 1078939194#1 1078939194#2 1078939194#3 1077974676#0 1077974676#1 1077974676#2 1231937649 1077974673 1231937648#0 1231937648#1 1201643772#0"/>
    </vehicle>
    <vehicle id="22" depart="22.00">
        <route edges="1078939194#2 1078939194#3 1077974676#0 1077974676#1 1077974676#2 1231937649 1077974673 1231937648#0 1231937648#1 1201643772#0 1201643772#1 1201484854#0 1201484854#1 1201643771 1201484853 428147190#0 428147190#1 428147190#2 1131988466#2 1131988466#3 1131988465#0 1131988465#1 1131988465#2"/>
    </vehicle>
    <vehicle id="23" depart="23.00">
        <route edges="1078939204 1078939194#1 1078939194#2 1078939194#3 1077974676#0 1077974676#1 1077974676#2 1231937649 1077974673 1231937648#0 1231937648#1 1201643772#0 1201643772#1 1201484854#0 1201484854#1 1201643771"/>
    </vehicle>
    <vehicle id="24" depart="24.00">
        <route edges="24450885#1 1078939195 1073536007#0 1073536007#1 1073536007#2 1073536007#3 136752711#1 136752711#2 136752711#3 136752711#4 136752711#5 136752711#6 136752711#7 136752711#8 136752711#9 136752711#10 1131988411#0 1131988411#1 136752700 136752696"/>
    </vehicle>
    <vehicle id="26" depart="26.00">
        <route edges="1201484853 428147190#0 428147190#1 428147190#2 50773677#2 50773677#3 50773677#4 50773677#5 50773677#6"/>
    </vehicle>
    <vehicle id="28" depart="28.00">
        <route edges="1101731482 50773676 50773677#0 50773677#2 50773677#3 50773677#4 50773677#5 50773677#6 1254816437 428147191#0 428147191#1 428147191#2"/>
    </vehicle>
    <vehicle id="31" depart="31.00">
        <route edges="177051740#1 1201643772#0 1201643772#1 1201484854#0 1201484854#1 1201643771 1201484853 428147190#0 428147190#1"/>
    </vehicle>
    <vehicle id="32" depart="32.00">
        <route edges="50773676 50773677#0 1131988466#2 1131988466#3 1131988465#0 1131988465#1 1131988465#2 1255166904#0 1255166904#1 1255166904#2 1255166904#3 1255166904#4 39692894#0 39692894#1 39692894#2 39692894#3 39692894#4 39692894#5 39692894#6 39692894#7 39692894#8 39692894#9 39692894#10 39692894#11 1092843304#0 428147193#1"/>
    </vehicle>
    <vehicle id="33" depart="33.00">
        <route edges="1131988465#0 1131988465#1 1131988465#2 1255166904#0 1255166904#1 1255166904#2 1255166904#3 1255166904#4 39692894#0 39692894#1 39692894#2 39692894#3 39692894#4 39692894#5 39692894#6 39692894#7 39692894#8 39692894#9 39692894#10 39692894#11 1092843304#0 1078939195 1073536007#0 1073536007#1 1073536007#2 1073536007#3"/>
    </vehicle>
    <vehicle id="34" depart="34.00">
        <route edges="1254816437 1201643772#0 1201643772#1 1201484854#0 1201484854#1"/>
    </vehicle>
    <vehicle id="36" depart="36.00">
        <route edges="50773677#2 50773677#3 50773677#4 50773677#5 50773677#6 1254816437 1201643772#0 1201643772#1 1201484854#0 1201484854#1 1201643771 1201484853 428147190#0 428147190#1 428147190#2 1131988466#2 1131988466#3 1131988465#0 1131988465#1 1131988465#2 1255166904#0"/>
    </vehicle>
    <vehicle id="38" depart="38.00">
        <route edges="50773677#6 1254816437 1201643772#0 1201643772#1 1201484854#0 1201484854#1 1201643771 1201484853 428147190#0 428147190#1 428147190#2 1131988466#2 1131988466#3 1131988465#0 1131988465#1 1131988465#2 1255166904#0 136752701 136752699 136752706"/>
    </vehicle>
    <vehicle id="39" depart="39.00">
        <route edges="1201484853 428147190#0 428147190#1 428147190#2 1131988466#2 1131988466#3"/>
    </vehicle>
    <vehicle id="40" depart="40.00">
        <route edges="177051740#1 1201643772#0 1201643772#1 1201484854#0"/>
    </vehicle>
    <vehicle id="41" depart="41.00">
        <route edges="177743542#0 177743542#1 177743542#2 177743542#3 136752711#1 136752711#2 136752711#3 136752711#4 136752711#5 136752711#6 136752711#7 136752711#8 136752711#9 136752711#10 1131988411#0 1131988411#1 1131988411#2 1131988411#3 1131988411#4 1131988411#5 1131988411#6 1131988410#0 50773677#2"/>
    </vehicle>
    <vehicle id="42" depart="42.00">
        <route edges="136752698 136752707 1131988465#2 1255166904#0 1255166904#1 1255166904#2 1255166904#3 1255166904#4 136752711#1 136752711#2 136752711#3 136752711#4 136752711#5 136752711#6 136752711#7 136752711#8 136752711#9 136752711#10 1131988411#0 1131988411#1 1131988411#2 1131988411#3 1131988411#4 1131988411#5 1131988411#6 1131988410#0 1131988466#2 1131988466#3 1131988465#0"/>
    </vehicle>
    <vehicle id="44" depart="44.00">
        <route edges="1078939195 1073536007#0 1073536007#1 1073536007#2 1073536007#3 39692894#0 39692894#1 39692894#2 39692894#3 39692894#4 39692894#5 39692894#6 39692894#7 39692894#8 39692894#9 39692894#10 39692894#11 1092843304#0 1078939194#1 1078939194#2 1078939194#3 1077974676#0 1077974676#1 1077974676#2 1231937649 1077974673"/>
    </vehicle>
    <vehicle id="45" depart="45.00">
        <route edges="1078939204 1078939195 1073536007#0 1073536007#1 1073536007#2 1073536007#3 39692894#0"/>
    </vehicle>
    <vehicle id="50" depart="50.00">
        <route edges="1073536007#1 1073536007#2 1073536007#3 39692894#0 39692894#1 39692894#2 39692894#3 39692894#4 39692894#5 39692894#6 39692894#7 39692894#8 39692894#9 39692894#10 39692894#11 1092843304#0 1078939194#1 1078939194#2 1078939194#3 1077974676#0 1077974676#1 1077974676#2 1231937649 1077974673 1231937648#0 1231937648#1 428147191#0"/>
    </vehicle>
    <vehicle id="52" depart="52.00">
        <route edges="1201484853 428147190#0 428147190#1 428147190#2 1131988466#2 1131988466#3 1131988465#0 1131988465#1 1131988465#2 1255166904#0 1255166904#1 1255166904#2 1255166904#3 1255166904#4 39692894#0 39692894#1"/>
    </vehicle>
    <vehicle id="53" depart="53.00">
        <route edges="1078939204 1078939195 1073536007#0 1073536007#1 1073536007#2 1073536007#3 136752711#1 136752711#2 136752711#3 136752711#4 136752711#5 136752711#6 136752711#7 136752711#8 136752711#9 136752711#10 1131988411#0 1131988411#1 1131988411#2 1131988411#3 482847293 1131988465#1 1131988465#2 1255166904#0 136752701"/>
    </vehicle>
    <vehicle id="55" depart="55.00">
        <route edges="50773677#2 50773677#3 50773677#4 50773677#5 50773677#6 1254816437 1201643772#0 1201643772#1 1201484854#0"/>
    </vehicle>
    <vehicle id="56" depart="56.00">
        <route edges="136752711#4 136752711#5 136752711#6 136752711#7 136752711#8 136752711#9 136752711#10 1131988411#0 1131988411#1 1131988411#2 1131988411#3 1131988411#4 1131988411#5 1131988411#6 1131988410#0 50773677#2 50773677#3 50773677#4 50773677#5 50773677#6 1254816437 1077974661#1 1124090095"/>
    </vehicle>
    <vehicle id="58" depart="58.00">
        <route edges="1201643772#1 1201484854#0 1201484854#1 1201643771 1201484853 428147190#0 428147190#1 428147190#2 1131988466#2 1131988466#3 1131988465#0 1131988465#1 1131988465#2 1255166904#0 1255166904#1 1255166904#2 1255166904#3 1255166904#4 39692894#0 39692894#1"/>
    </vehicle>
    <vehicle id="59" depart="59.00">
        <route edges="177743542#3 39692894#0 39692894#1 39692894#2 39692894#3 39692894#4 39692894#5 39692894#6 39692894#7 39692894#8 39692894#9 39692894#10 39692894#11 1092843304#0"/>
    </vehicle>
    <vehicle id="62" depart="62.00">
        <route edges="1073536007#0 1073536007#1 1073536007#2 1073536007#3 136752711#1 136752711#2 136752711#3 136752711#4 136752711#5 136752711#6 136752711#7 136752711#8 136752711#9 136752711#10 1131988411#0 1131988411#1 1131988411#2 1131988411#3 482847293 1131988465#1 1131988465#2 1255166904#0 1255166904#1 1255166904#2"/>
    </vehicle>
    <vehicle id="63" depart="63.00">
        <route edges="1073536007#2 1073536007#3 136752711#1 136752711#2 136752711#3 136752711#4 136752711#5 136752711#6 136752711#7 136752711#8 136752711#9 136752711#10 1131988411#0 1131988411#1 1131988411#2 1131988411#3 1131988411#4 1131988411#5 1131988411#6 1131988410#0 50773677#2 50773677#3 50773677#4 50773677#5 50773677#6"/>
    </vehicle>
    <vehicle id="64" depart="64.00">
        <route edges="50773677#2 50773677#3 50773677#4 50773677#5 50773677#6 1254816437 1201643772#0 1201643772#1 1201484854#0 1201484854#1 1201643771 1201484853 428147190#0 428147190#1 428147190#2 1131988410#2 71461990 43925759#0 43925759#1 43925759#2 43925759#3"/>
    </vehicle>
    <vehicle id="65" depart="65.00">
        <route edges="1231937649 1077974673 1231937648#0 1231937648#1 1077974661#1 1124090095 1124090094 1077974662 1272508514 1272508532 1078939204 1078939194#1 1078939194#2 1078939194#3 1077974676#0 1077974676#1"/>
    </vehicle>
    <vehicle id="67" depart="67.00">
        <route edges="1078939194#3 1077974676#0 1077974676#1 1077974676#2 1231937649 1077974673 1231937648#0 1231937648#1 1077974661#1 1124090095 1124090094 1077974662 1272508514 1272508532 1078939204 1078939195 1073536007#0 1073536007#1 1073536007#2 1073536007#3 136752711#1 136752711#2 136752711#3 136752711#4 136752711#5 136752711#6 136752711#7 136752711#8 136752711#9 136752711#10"/>
    </vehicle>
    <vehicle id="68" depart="68.00">
        <route edges="1077974681 428147192#0"/>
    </vehicle>
    <vehicle id="73" depart="73.00">
        <route edges="176876587#0 176876587#1 428147191#0 428147191#1 428147191#2"/>
    </vehicle>
    <vehicle id="74" depart="74.00">
        <route edges="1131988410#0 50773677#2 50773677#3 50773677#4 50773677#5 50773677#6 1254816437"/>
    </vehicle>
    <vehicle id="77" depart="77.00">
        <route edges="1092600147#1 1092600147#2 1092600147#3 136752711#1 136752711#2 136752711#3 136752711#4 136752711#5 136752711#6 136752711#7 136752711#8 136752711#9 136752711#10 1131988411#0 1131988411#1 1131988411#2 1131988411#3 482847293 1131988465#1"/>
    </vehicle>
    <vehicle id="78" depart="78.00">
        <route edges="1255166904#4 24474354#1 24474354#2"/>
    </vehicle>
    <vehicle id="79" depart="79.00">
        <route edges="1131988465#1 1131988465#2 1255166904#0 1255166904#1 1255166904#2 1255166904#3 1255166904#4 136752711#1 136752711#2 136752711#3 136752711#4 136752711#5 136752711#6 136752711#7 136752711#8 136752711#9 136752711#10 1131988411#0 1131988411#1 1131988411#2 1131988411#3 1131988411#4 1131988411#5 1131988411#6 1131988410#0 1131988466#2 1131988466#3 1131988465#0"/>
    </vehicle>
    <vehicle id="81" depart="81.00">
        <route edges="1131988465#0 1131988465#1 1131988465#2 1255166904#0 1255166904#1 1255166904#2 1255166904#3 1255166904#4 136752711#1 136752711#2 136752711#3 136752711#4 136752711#5 136752711#6 136752711#7 136752711#8 136752711#9 136752711#10 1131988411#0 1131988411#1 1131988411#2 1131988411#3 1131988411#4 1131988411#5 1131988411#6 1131988410#0 50773677#2 50773677#3"/>
    </vehicle>
    <vehicle id="82" depart="82.00">
        <route edges="50773677#2 50773677#3 50773677#4 50773677#5 50773677#6 1254816437 1077974681"/>
    </vehicle>
    <vehicle id="83" depart="83.00">
        <route edges="1131988465#2 1255166904#0 1255166904#1 1255166904#2 1255166904#3 1255166904#4 39692894#0 39692894#1 39692894#2 39692894#3 39692894#4 39692894#5 39692894#6 39692894#7 39692894#8 39692894#9 39692894#10 39692894#11 1092843304#0 1078939194#1 1078939194#2 1078939194#3 1077974676#0 1077974676#1 1077974676#2 1231937649 1077974673 1231937648#0 1231937648#1 1201643772#0 1201643772#1 1201484854#0 1201484854#1 1201643771 1201484853 428147190#0"/>
    </vehicle>
    <vehicle id="85" depart="85.00">
        <route edges="69156898#2 1078939195 1073536007#0 1073536007#1 1073536007#2 1073536007#3 24474354#1"/>
    </vehicle>
    <vehicle id="86" depart="86.00">
        <route edges="136752707 1131988465#2 1255166904#0 1255166904#1 1255166904#2 1255166904#3 1255166904#4 39692894#0 39692894#1 39692894#2 39692894#3 39692894#4 39692894#5 39692894#6 39692894#7 39692894#8 39692894#9 39692894#10 39692894#11 1092843304#0 428147193#1 428147193#2"/>
    </vehicle>
    <vehicle id="88" depart="88.00">
        <route edges="1078939195 1073536007#0 1073536007#1 1073536007#2 1073536007#3 136752711#1 136752711#2 136752711#3 136752711#4 136752711#5 136752711#6 136752711#7 136752711#8 136752711#9 136752711#10 1131988411#0 1131988411#1 136752700"/>
    </vehicle>
    <vehicle id="90" depart="90.00">
        <route edges="428147190#1 428147190#2 50773677#2 50773677#3 50773677#4 50773677#5 50773677#6 1254816437 1201643772#0 1201643772#1 1201484854#0 1201484854#1 1201643771 1201484853 428147190#0"/>
    </vehicle>
    <vehicle id="91" depart="91.00">
        <route edges="71461988#3 71461988#4 71461993 1131988466#0 50773677#2 50773677#3 50773677#4 50773677#5 50773677#6 1254816437 1077974661#1 1124090095 1124090094 1077974662 1272508514 1272508532 1078939204"/>
    </vehicle>
    <vehicle id="92" depart="92.00">
        <route edges="136752698 136752707 1131988465#2 1255166904#0 1255166904#1 1255166904#2 1255166904#3 1255166904#4 39692894#0 39692894#1 39692894#2 39692894#3 39692894#4 39692894#5 39692894#6 39692894#7 39692894#8 39692894#9 39692894#10 39692894#11 1092843304#0 1078939194#1 1078939194#2 1078939194#3 1077974676#0 1077974676#1 1077974676#2 1231937649 1077974673 1231937648#0 1231937648#1 1077974661#1 1124090095 1124090094 1077974662 1272508514 1272508532"/>
    </vehicle>
    <vehicle id="93" depart="93.00">
        <route edges="50773677#2 50773677#3 50773677#4 50773677#5 50773677#6 1254816437 1201643772#0 1201643772#1 1201484854#0 1201484854#1 1201643771 1201484853 428147190#0 428147190#1 428147190#2 1131988466#2 1131988466#3"/>
    </vehicle>
    <vehicle id="96" depart="96.00">
        <route edges="1131988466#3 1131988465#0 1131988465#1 1131988465#2 1255166904#0 1255166904#1 1255166904#2 1255166904#3 1255166904#4 136752711#1 136752711#2 136752711#3 136752711#4 136752711#5 136752711#6 136752711#7 136752711#8 136752711#9 136752711#10 1131988411#0 1131988411#1 1131988411#2 1131988411#3 1131988411#4 1131988411#5 1131988411#6 1131988410#0 50773677#2 50773677#3 50773677#4 50773677#5 50773677#6"/>
    </vehicle>
    <vehicle id="98" depart="98.00">
        <route edges="177051740#0 177051740#1 1077974661#1 1124090095 1124090094 1077974662 1272508514 1272508532 1078939204 1078939194#1 1078939194#2 1078939194#3 1077974676#0 1077974676#1 1077974676#2 1231937649 1077974673"/>
    </vehicle>
</routes>
