<?xml version="1.0" encoding="UTF-8"?>

<!-- generated on 2024-05-29 16:18:40 by Eclipse SUMO duarouter Version 1.19.0
<configuration xmlns:xsi="http://www.w3.org/2001/XMLSchema-instance" xsi:noNamespaceSchemaLocation="http://sumo.dlr.de/xsd/duarouterConfiguration.xsd">

    <input>
        <net-file value="sumodata/tj.net.xml"/>
        <route-files value="sumodata/trips.trips.xml"/>
    </input>

    <output>
        <output-file value="sumodata/tj.rou.xml"/>
    </output>

    <time>
        <begin value="0"/>
        <end value="1000.0"/>
    </time>

    <report>
        <no-warnings value="true"/>
        <ignore-errors value="true"/>
        <no-step-log value="true"/>
    </report>

</configuration>
-->

<routes xmlns:xsi="http://www.w3.org/2001/XMLSchema-instance" xsi:noNamespaceSchemaLocation="http://sumo.dlr.de/xsd/routes_file.xsd">
    <vehicle id="1" depart="1.00">
        <route edges="39692894#0 39692894#1 39692894#2 1092843304#0 1078939205 1092843298#0 1092843298#1 69157154#0"/>
    </vehicle>
    <vehicle id="4" depart="4.00">
        <route edges="39692894#2 1092843304#0 1078939205 1092843298#0 1092843298#1 69157154#0"/>
    </vehicle>
    <vehicle id="5" depart="5.00">
        <route edges="39692894#1 39692894#2 1092843304#0 1078939205 1092843298#0 1092843298#1"/>
    </vehicle>
    <vehicle id="6" depart="6.00">
        <route edges="1078939193 69152604 69156898#0 69156898#1 69156898#2 1078939205 1092843298#0 1092843298#1"/>
    </vehicle>
    <vehicle id="7" depart="7.00">
        <route edges="39692894#2 1092843304#0 1078939205 1092843298#0 1092843298#1 69157154#0 69157154#1 1078939206"/>
    </vehicle>
    <vehicle id="8" depart="8.00">
        <route edges="69156898#1 69156898#2 1078939205 1092843298#0 1092843298#1 69157154#0 69157154#1 1078939206"/>
    </vehicle>
    <vehicle id="9" depart="9.00">
        <route edges="1092843298#0 1092843298#1"/>
    </vehicle>
    <vehicle id="10" depart="10.00">
        <route edges="39692894#0 39692894#1 39692894#2 1092843304#0 1078939205 1092843298#0 1092843298#1"/>
    </vehicle>
    <vehicle id="11" depart="11.00">
        <route edges="69156898#1 69156898#2 1078939205"/>
    </vehicle>
    <vehicle id="12" depart="12.00">
        <route edges="1078939204 1078939205 1092843298#0"/>
    </vehicle>
    <vehicle id="13" depart="13.00">
        <route edges="39692894#0 39692894#1 39692894#2 1092843304#0"/>
    </vehicle>
    <vehicle id="15" depart="15.00">
        <route edges="69152604 69156898#0 69156898#1 69156898#2 1078939205 1092843298#0 1092843298#1 69157154#0 69157154#1 1078939206"/>
    </vehicle>
    <vehicle id="20" depart="20.00">
        <route edges="1078939193 69152604 69156898#0"/>
    </vehicle>
    <vehicle id="21" depart="21.00">
        <route edges="69156898#2 1078939205 1092843298#0 1092843298#1 69157154#0"/>
    </vehicle>
    <vehicle id="23" depart="23.00">
        <route edges="39692894#1 39692894#2 1092843304#0 428147193#1"/>
    </vehicle>
    <vehicle id="24" depart="24.00">
        <route edges="69152604"/>
    </vehicle>
    <vehicle id="25" depart="25.00">
        <route edges="1078939193 69152604 69156898#0 69156898#1 69156898#2 1078939205 1092843298#0 1092843298#1"/>
    </vehicle>
    <vehicle id="26" depart="26.00">
        <route edges="69156898#1 69156898#2 1078939195"/>
    </vehicle>
    <vehicle id="27" depart="27.00">
        <route edges="69156898#1 69156898#2 1078939195"/>
    </vehicle>
    <vehicle id="29" depart="29.00">
        <route edges="1078939204 1078939205 1092843298#0 1092843298#1 69157154#0 69157154#1 1078939206"/>
    </vehicle>
    <vehicle id="30" depart="30.00">
        <route edges="1078939205 1092843298#0 1092843298#1 69157154#0 69157154#1"/>
    </vehicle>
    <vehicle id="32" depart="32.00">
        <route edges="1092843304#0 1078939205"/>
    </vehicle>
    <vehicle id="35" depart="35.00">
        <route edges="69156898#0 69156898#1 69156898#2 1078939205 1092843298#0 1092843298#1"/>
    </vehicle>
    <vehicle id="36" depart="36.00">
        <route edges="39692894#1 39692894#2 1092843304#0 1078939205 1092843298#0 1092843298#1 69157154#0 69157154#1 1078939206"/>
    </vehicle>
    <vehicle id="38" depart="38.00">
        <route edges="1078939193 69152604 69156898#0 69156898#1 69156898#2 1078939194#1 1078939194#2"/>
    </vehicle>
    <vehicle id="40" depart="40.00">
        <route edges="69156898#0 69156898#1 69156898#2 428147193#1"/>
    </vehicle>
    <vehicle id="41" depart="41.00">
        <route edges="69156898#0 69156898#1 69156898#2 1078939195"/>
    </vehicle>
    <vehicle id="45" depart="45.00">
        <route edges="1092843304#0 1078939205 1092843298#0 1092843298#1 69157154#0"/>
    </vehicle>
    <vehicle id="48" depart="48.00">
        <route edges="39692894#0 39692894#1 39692894#2"/>
    </vehicle>
    <vehicle id="49" depart="49.00">
        <route edges="39692894#2 1092843304#0 428147193#1"/>
    </vehicle>
    <vehicle id="51" depart="51.00">
        <route edges="69156898#1 69156898#2 1078939205 1092843298#0 1092843298#1 69157154#0 69157154#1"/>
    </vehicle>
    <vehicle id="52" depart="52.00">
        <route edges="69152604 69156898#0 69156898#1 69156898#2 1078939205 1092843298#0 1092843298#1"/>
    </vehicle>
    <vehicle id="55" depart="55.00">
        <route edges="39692894#2 1092843304#0 1078939194#1 1078939194#2"/>
    </vehicle>
    <vehicle id="58" depart="58.00">
        <route edges="69156898#0 69156898#1"/>
    </vehicle>
    <vehicle id="59" depart="59.00">
        <route edges="39692894#0 39692894#1"/>
    </vehicle>
    <vehicle id="60" depart="60.00">
        <route edges="1078939193 69152604 69156898#0 69156898#1 69156898#2 428147193#1"/>
    </vehicle>
    <vehicle id="61" depart="61.00">
        <route edges="24450885#1 1078939195"/>
    </vehicle>
    <vehicle id="62" depart="62.00">
        <route edges="69156898#1 69156898#2 1078939194#1"/>
    </vehicle>
    <vehicle id="67" depart="67.00">
        <route edges="69156898#2"/>
    </vehicle>
    <vehicle id="73" depart="73.00">
        <route edges="1092843304#0 428147193#1"/>
    </vehicle>
    <vehicle id="75" depart="75.00">
        <route edges="1078939205 1092843298#0"/>
    </vehicle>
    <vehicle id="76" depart="76.00">
        <route edges="69152604 69156898#0 69156898#1 69156898#2 1078939205"/>
    </vehicle>
    <vehicle id="83" depart="83.00">
        <route edges="39692894#0 39692894#1 39692894#2"/>
    </vehicle>
    <vehicle id="87" depart="87.00">
        <route edges="24450885#0 24450885#1 428147193#1"/>
    </vehicle>
    <vehicle id="89" depart="89.00">
        <route edges="1092843304#0 1078939205 1092843298#0 1092843298#1"/>
    </vehicle>
    <vehicle id="92" depart="92.00">
        <route edges="1078939193 69152604 69156898#0 69156898#1 69156898#2 1078939194#1"/>
    </vehicle>
    <vehicle id="93" depart="93.00">
        <route edges="39692894#0 39692894#1 39692894#2 1092843304#0 1078939194#1 1078939194#2"/>
    </vehicle>
    <vehicle id="97" depart="97.00">
        <route edges="39692894#1 39692894#2 1092843304#0 1078939194#1 1078939194#2"/>
    </vehicle>
    <vehicle id="99" depart="99.00">
        <route edges="1078939193 69152604 69156898#0 69156898#1 69156898#2 1078939205 1092843298#0"/>
    </vehicle>
    <vehicle id="100" depart="100.00">
        <route edges="69152604 69156898#0 69156898#1 69156898#2"/>
    </vehicle>
    <vehicle id="101" depart="101.00">
        <route edges="39692894#0 39692894#1 39692894#2 1092843304#0 1078939205 1092843298#0 1092843298#1"/>
    </vehicle>
    <vehicle id="102" depart="102.00">
        <route edges="1092843298#1"/>
    </vehicle>
    <vehicle id="106" depart="106.00">
        <route edges="69152604 69156898#0 69156898#1 69156898#2 1078939195"/>
    </vehicle>
    <vehicle id="110" depart="110.00">
        <route edges="39692894#1 39692894#2 1092843304#0 1078939205 1092843298#0 1092843298#1 69157154#0"/>
    </vehicle>
    <vehicle id="111" depart="111.00">
        <route edges="1092843298#0"/>
    </vehicle>
    <vehicle id="112" depart="112.00">
        <route edges="69156898#0"/>
    </vehicle>
    <vehicle id="113" depart="113.00">
        <route edges="1092843298#0 1092843298#1"/>
    </vehicle>
    <vehicle id="114" depart="114.00">
        <route edges="1078939194#2"/>
    </vehicle>
    <vehicle id="116" depart="116.00">
        <route edges="24450885#1 428147193#1"/>
    </vehicle>
    <vehicle id="118" depart="118.00">
        <route edges="39692894#2 1092843304#0 1078939205 1092843298#0 1092843298#1"/>
    </vehicle>
    <vehicle id="123" depart="123.00">
        <route edges="1078939204 1078939194#1 1078939194#2"/>
    </vehicle>
    <vehicle id="128" depart="128.00">
        <route edges="39692894#2 1092843304#0 1078939195"/>
    </vehicle>
    <vehicle id="129" depart="129.00">
        <route edges="24450885#1 1078939205 1092843298#0 1092843298#1 69157154#0 69157154#1 1078939206"/>
    </vehicle>
    <vehicle id="130" depart="130.00">
        <route edges="1078939204 1078939205 1092843298#0"/>
    </vehicle>
    <vehicle id="131" depart="131.00">
        <route edges="1092843304#0 1078939205 1092843298#0"/>
    </vehicle>
    <vehicle id="132" depart="132.00">
        <route edges="69152604 69156898#0 69156898#1 69156898#2 1078939205 1092843298#0 1092843298#1 69157154#0 69157154#1"/>
    </vehicle>
    <vehicle id="133" depart="133.00">
        <route edges="24450885#1 428147193#1 428147193#2"/>
    </vehicle>
    <vehicle id="134" depart="134.00">
        <route edges="69156898#0 69156898#1 69156898#2 1078939205"/>
    </vehicle>
    <vehicle id="135" depart="135.00">
        <route edges="39692894#2 1092843304#0 428147193#1"/>
    </vehicle>
    <vehicle id="136" depart="136.00">
        <route edges="24450885#0 24450885#1 1078939205"/>
    </vehicle>
    <vehicle id="138" depart="138.00">
        <route edges="69156898#1 69156898#2 1078939194#1 1078939194#2 1078939194#3"/>
    </vehicle>
    <vehicle id="140" depart="140.00">
        <route edges="69152604 69156898#0 69156898#1 69156898#2 1078939195"/>
    </vehicle>
    <vehicle id="142" depart="142.00">
        <route edges="1092843304#0 428147193#1 428147193#2"/>
    </vehicle>
    <vehicle id="144" depart="144.00">
        <route edges="39692894#1 39692894#2 1092843304#0 1078939205 1092843298#0 1092843298#1"/>
    </vehicle>
    <vehicle id="145" depart="145.00">
        <route edges="69152604 69156898#0 69156898#1 69156898#2 1078939194#1 1078939194#2 1078939194#3"/>
    </vehicle>
    <vehicle id="146" depart="146.00">
        <route edges="39692894#1 39692894#2 1092843304#0 1078939205"/>
    </vehicle>
    <vehicle id="147" depart="147.00">
        <route edges="1078939194#2 1078939194#3"/>
    </vehicle>
    <vehicle id="148" depart="148.00">
        <route edges="1092843304#0 428147193#1 428147193#2"/>
    </vehicle>
    <vehicle id="150" depart="150.00">
        <route edges="69157154#0"/>
    </vehicle>
    <vehicle id="151" depart="151.00">
        <route edges="39692894#2 1092843304#0 1078939205 1092843298#0 1092843298#1 69157154#0"/>
    </vehicle>
    <vehicle id="154" depart="154.00">
        <route edges="1078939205 1092843298#0"/>
    </vehicle>
    <vehicle id="155" depart="155.00">
        <route edges="69152604 69156898#0 69156898#1 69156898#2 428147193#1"/>
    </vehicle>
    <vehicle id="158" depart="158.00">
        <route edges="1078939193 69152604 69156898#0 69156898#1 69156898#2 1078939205 1092843298#0"/>
    </vehicle>
    <vehicle id="159" depart="159.00">
        <route edges="39692894#2 1092843304#0 428147193#1"/>
    </vehicle>
    <vehicle id="160" depart="160.00">
        <route edges="39692894#0 39692894#1 39692894#2 1092843304#0 1078939205 1092843298#0 1092843298#1 69157154#0 69157154#1 1078939206"/>
    </vehicle>
    <vehicle id="161" depart="161.00">
        <route edges="24450885#1 1078939195"/>
    </vehicle>
    <vehicle id="163" depart="163.00">
        <route edges="39692894#1 39692894#2"/>
    </vehicle>
    <vehicle id="164" depart="164.00">
        <route edges="69152604 69156898#0 69156898#1 69156898#2 1078939205 1092843298#0 1092843298#1 69157154#0 69157154#1"/>
    </vehicle>
    <vehicle id="165" depart="165.00">
        <route edges="1092843298#1 69157154#0 69157154#1"/>
    </vehicle>
    <vehicle id="167" depart="167.00">
        <route edges="1078939193 69152604 69156898#0 69156898#1"/>
    </vehicle>
    <vehicle id="169" depart="169.00">
        <route edges="69152604 69156898#0 69156898#1 69156898#2 1078939205 1092843298#0"/>
    </vehicle>
    <vehicle id="170" depart="170.00">
        <route edges="39692894#0 39692894#1 39692894#2 1092843304#0 1078939205 1092843298#0 1092843298#1 69157154#0"/>
    </vehicle>
    <vehicle id="176" depart="176.00">
        <route edges="69156898#1 69156898#2 428147193#1 428147193#2"/>
    </vehicle>
    <vehicle id="179" depart="179.00">
        <route edges="1078939194#1 1078939194#2 1078939194#3"/>
    </vehicle>
    <vehicle id="180" depart="180.00">
        <route edges="1078939204 1078939205 1092843298#0 1092843298#1 69157154#0 69157154#1 1078939206"/>
    </vehicle>
    <vehicle id="181" depart="181.00">
        <route edges="24450885#0 24450885#1 1078939205"/>
    </vehicle>
    <vehicle id="188" depart="188.00">
        <route edges="69156898#1 69156898#2 428147193#1 428147193#2"/>
    </vehicle>
    <vehicle id="189" depart="189.00">
        <route edges="69152604 69156898#0"/>
    </vehicle>
    <vehicle id="190" depart="190.00">
        <route edges="39692894#0 39692894#1 39692894#2 1092843304#0 1078939205 1092843298#0 1092843298#1 69157154#0 69157154#1"/>
    </vehicle>
    <vehicle id="191" depart="191.00">
        <route edges="69156898#0 69156898#1"/>
    </vehicle>
    <vehicle id="192" depart="192.00">
        <route edges="69156898#2 1078939205"/>
    </vehicle>
    <vehicle id="193" depart="193.00">
        <route edges="39692894#0 39692894#1 39692894#2 1092843304#0 428147193#1"/>
    </vehicle>
    <vehicle id="194" depart="194.00">
        <route edges="69156898#1 69156898#2 1078939205"/>
    </vehicle>
    <vehicle id="195" depart="195.00">
        <route edges="39692894#2 1092843304#0 1078939194#1"/>
    </vehicle>
    <vehicle id="196" depart="196.00">
        <route edges="39692894#2 1092843304#0 1078939205 1092843298#0 1092843298#1 69157154#0 69157154#1 1078939206"/>
    </vehicle>
    <vehicle id="197" depart="197.00">
        <route edges="69156898#1 69156898#2 1078939205 1092843298#0"/>
    </vehicle>
    <vehicle id="200" depart="200.00">
        <route edges="1078939193 69152604 69156898#0 69156898#1 69156898#2 428147193#1"/>
    </vehicle>
    <vehicle id="201" depart="201.00">
        <route edges="1078939193 69152604 69156898#0 69156898#1"/>
    </vehicle>
    <vehicle id="202" depart="202.00">
        <route edges="69156898#2 1078939205 1092843298#0 1092843298#1 69157154#0"/>
    </vehicle>
    <vehicle id="203" depart="203.00">
        <route edges="1078939205 1092843298#0 1092843298#1 69157154#0 69157154#1 1078939206"/>
    </vehicle>
    <vehicle id="204" depart="204.00">
        <route edges="39692894#1 39692894#2 1092843304#0 1078939194#1"/>
    </vehicle>
    <vehicle id="206" depart="206.00">
        <route edges="39692894#1 39692894#2 1092843304#0 1078939205 1092843298#0 1092843298#1 69157154#0 69157154#1 1078939206"/>
    </vehicle>
    <vehicle id="207" depart="207.00">
        <route edges="69152604"/>
    </vehicle>
    <vehicle id="210" depart="210.00">
        <route edges="1078939193 69152604 69156898#0 69156898#1 69156898#2 1078939205"/>
    </vehicle>
    <vehicle id="211" depart="211.00">
        <route edges="39692894#0 39692894#1 39692894#2 1092843304#0 1078939205 1092843298#0 1092843298#1 69157154#0 69157154#1 1078939206"/>
    </vehicle>
    <vehicle id="216" depart="216.00">
        <route edges="39692894#2 1092843304#0 1078939205 1092843298#0"/>
    </vehicle>
    <vehicle id="220" depart="220.00">
        <route edges="24450885#1 1078939205 1092843298#0 1092843298#1 69157154#0 69157154#1 1078939206"/>
    </vehicle>
    <vehicle id="222" depart="222.00">
        <route edges="69156898#0 69156898#1 69156898#2 1078939195"/>
    </vehicle>
    <vehicle id="223" depart="223.00">
        <route edges="69152604 69156898#0 69156898#1 69156898#2 1078939205"/>
    </vehicle>
    <vehicle id="225" depart="225.00">
        <route edges="69156898#2 1078939194#1 1078939194#2"/>
    </vehicle>
    <vehicle id="228" depart="228.00">
        <route edges="24450885#0 24450885#1 1078939205 1092843298#0 1092843298#1 69157154#0"/>
    </vehicle>
    <vehicle id="229" depart="229.00">
        <route edges="69156898#0 69156898#1 69156898#2 428147193#1 428147193#2"/>
    </vehicle>
    <vehicle id="230" depart="230.00">
        <route edges="24450885#0 24450885#1 1078939194#1 1078939194#2"/>
    </vehicle>
    <vehicle id="232" depart="232.00">
        <route edges="69156898#0 69156898#1 69156898#2 1078939205 1092843298#0 1092843298#1 69157154#0"/>
    </vehicle>
    <vehicle id="234" depart="234.00">
        <route edges="1092843304#0 1078939195"/>
    </vehicle>
    <vehicle id="240" depart="240.00">
        <route edges="1078939194#2"/>
    </vehicle>
    <vehicle id="242" depart="242.00">
        <route edges="69156898#1 69156898#2 428147193#1 428147193#2"/>
    </vehicle>
    <vehicle id="243" depart="243.00">
        <route edges="69156898#0 69156898#1 69156898#2 1078939205"/>
    </vehicle>
    <vehicle id="244" depart="244.00">
        <route edges="69156898#0 69156898#1 69156898#2 1078939205"/>
    </vehicle>
    <vehicle id="245" depart="245.00">
        <route edges="1078939193 69152604 69156898#0 69156898#1 69156898#2 1078939205 1092843298#0 1092843298#1 69157154#0"/>
    </vehicle>
    <vehicle id="246" depart="246.00">
        <route edges="1078939204 1078939205"/>
    </vehicle>
    <vehicle id="247" depart="247.00">
        <route edges="69156898#0 69156898#1 69156898#2 1078939194#1 1078939194#2 1078939194#3"/>
    </vehicle>
    <vehicle id="249" depart="249.00">
        <route edges="39692894#0 39692894#1 39692894#2 1092843304#0 1078939205 1092843298#0 1092843298#1 69157154#0"/>
    </vehicle>
    <vehicle id="250" depart="250.00">
        <route edges="1078939193 69152604 69156898#0 69156898#1 69156898#2 428147193#1"/>
    </vehicle>
    <vehicle id="252" depart="252.00">
        <route edges="24450885#0 24450885#1 1078939205 1092843298#0 1092843298#1 69157154#0 69157154#1 1078939206"/>
    </vehicle>
    <vehicle id="254" depart="254.00">
        <route edges="39692894#0 39692894#1 39692894#2 1092843304#0 1078939205 1092843298#0 1092843298#1 69157154#0"/>
    </vehicle>
    <vehicle id="255" depart="255.00">
        <route edges="24450885#1 1078939194#1 1078939194#2"/>
    </vehicle>
    <vehicle id="256" depart="256.00">
        <route edges="24450885#0 24450885#1 1078939205 1092843298#0 1092843298#1 69157154#0 69157154#1 1078939206"/>
    </vehicle>
    <vehicle id="257" depart="257.00">
        <route edges="69156898#0 69156898#1 69156898#2 428147193#1 428147193#2"/>
    </vehicle>
    <vehicle id="259" depart="259.00">
        <route edges="69156898#2 1078939194#1"/>
    </vehicle>
    <vehicle id="260" depart="260.00">
        <route edges="39692894#0 39692894#1 39692894#2 1092843304#0 428147193#1"/>
    </vehicle>
    <vehicle id="261" depart="261.00">
        <route edges="1092843304#0 1078939205 1092843298#0 1092843298#1 69157154#0"/>
    </vehicle>
    <vehicle id="263" depart="263.00">
        <route edges="1078939193 69152604 69156898#0 69156898#1 69156898#2 1078939205 1092843298#0 1092843298#1"/>
    </vehicle>
    <vehicle id="265" depart="265.00">
        <route edges="24450885#1 1078939205 1092843298#0 1092843298#1"/>
    </vehicle>
    <vehicle id="266" depart="266.00">
        <route edges="69156898#1 69156898#2 1078939194#1 1078939194#2"/>
    </vehicle>
    <vehicle id="267" depart="267.00">
        <route edges="24450885#0 24450885#1 1078939194#1 1078939194#2"/>
    </vehicle>
    <vehicle id="270" depart="270.00">
        <route edges="69156898#2 1078939205"/>
    </vehicle>
    <vehicle id="276" depart="276.00">
        <route edges="24450885#0 24450885#1 1078939205 1092843298#0 1092843298#1"/>
    </vehicle>
    <vehicle id="277" depart="277.00">
        <route edges="1092843304#0 428147193#1"/>
    </vehicle>
    <vehicle id="279" depart="279.00">
        <route edges="24450885#1 1078939194#1"/>
    </vehicle>
    <vehicle id="281" depart="281.00">
        <route edges="1078939194#1"/>
    </vehicle>
    <vehicle id="282" depart="282.00">
        <route edges="24450885#0 24450885#1 1078939195"/>
    </vehicle>
    <vehicle id="285" depart="285.00">
        <route edges="1078939194#2 1078939194#3"/>
    </vehicle>
    <vehicle id="288" depart="288.00">
        <route edges="69156898#1 69156898#2 1078939194#1 1078939194#2"/>
    </vehicle>
    <vehicle id="291" depart="291.00">
        <route edges="1078939194#1 1078939194#2"/>
    </vehicle>
    <vehicle id="294" depart="294.00">
        <route edges="1078939204 1078939205 1092843298#0 1092843298#1"/>
    </vehicle>
    <vehicle id="296" depart="296.00">
        <route edges="1092843298#1 69157154#0"/>
    </vehicle>
    <vehicle id="298" depart="298.00">
        <route edges="1078939193 69152604 69156898#0 69156898#1 69156898#2 428147193#1"/>
    </vehicle>
    <vehicle id="299" depart="299.00">
        <route edges="1078939194#1 1078939194#2 1078939194#3"/>
    </vehicle>
    <vehicle id="300" depart="300.00">
        <route edges="39692894#1 39692894#2 1092843304#0 1078939194#1 1078939194#2"/>
    </vehicle>
    <vehicle id="304" depart="304.00">
        <route edges="69156898#2"/>
    </vehicle>
    <vehicle id="307" depart="307.00">
        <route edges="69156898#0 69156898#1 69156898#2 1078939205 1092843298#0 1092843298#1"/>
    </vehicle>
    <vehicle id="308" depart="308.00">
        <route edges="39692894#0 39692894#1 39692894#2 1092843304#0 1078939194#1 1078939194#2 1078939194#3"/>
    </vehicle>
    <vehicle id="310" depart="310.00">
        <route edges="24450885#1 428147193#1"/>
    </vehicle>
    <vehicle id="314" depart="314.00">
        <route edges="1092843304#0 1078939205 1092843298#0 1092843298#1 69157154#0"/>
    </vehicle>
    <vehicle id="315" depart="315.00">
        <route edges="39692894#2 1092843304#0 1078939205 1092843298#0 1092843298#1 69157154#0 69157154#1 1078939206"/>
    </vehicle>
    <vehicle id="318" depart="318.00">
        <route edges="1078939204 1078939205 1092843298#0 1092843298#1"/>
    </vehicle>
    <vehicle id="321" depart="321.00">
        <route edges="1078939193 69152604 69156898#0 69156898#1 69156898#2 428147193#1"/>
    </vehicle>
    <vehicle id="322" depart="322.00">
        <route edges="69156898#2 1078939205 1092843298#0 1092843298#1 69157154#0"/>
    </vehicle>
    <vehicle id="323" depart="323.00">
        <route edges="69156898#2 428147193#1 428147193#2"/>
    </vehicle>
    <vehicle id="325" depart="325.00">
        <route edges="24450885#0 24450885#1 1078939205 1092843298#0 1092843298#1 69157154#0 69157154#1"/>
    </vehicle>
    <vehicle id="326" depart="326.00">
        <route edges="39692894#0 39692894#1"/>
    </vehicle>
    <vehicle id="327" depart="327.00">
        <route edges="24450885#0 24450885#1 1078939205 1092843298#0 1092843298#1"/>
    </vehicle>
    <vehicle id="330" depart="330.00">
        <route edges="69152604 69156898#0 69156898#1 69156898#2 1078939194#1 1078939194#2"/>
    </vehicle>
    <vehicle id="333" depart="333.00">
        <route edges="69156898#0 69156898#1 69156898#2 428147193#1 428147193#2"/>
    </vehicle>
    <vehicle id="335" depart="335.00">
        <route edges="1078939193 69152604 69156898#0 69156898#1 69156898#2 1078939205 1092843298#0 1092843298#1"/>
    </vehicle>
    <vehicle id="338" depart="338.00">
        <route edges="24450885#0 24450885#1 428147193#1"/>
    </vehicle>
    <vehicle id="345" depart="345.00">
        <route edges="39692894#1 39692894#2 1092843304#0 1078939205 1092843298#0 1092843298#1"/>
    </vehicle>
    <vehicle id="346" depart="346.00">
        <route edges="39692894#0 39692894#1 39692894#2 1092843304#0 428147193#1"/>
    </vehicle>
    <vehicle id="348" depart="348.00">
        <route edges="1078939194#1 1078939194#2"/>
    </vehicle>
    <vehicle id="351" depart="351.00">
        <route edges="69157154#0 69157154#1"/>
    </vehicle>
    <vehicle id="352" depart="352.00">
        <route edges="1092843298#0 1092843298#1"/>
    </vehicle>
    <vehicle id="354" depart="354.00">
        <route edges="1092843298#0"/>
    </vehicle>
    <vehicle id="355" depart="355.00">
        <route edges="1078939194#2 1078939194#3"/>
    </vehicle>
    <vehicle id="357" depart="357.00">
        <route edges="69156898#0 69156898#1 69156898#2 1078939194#1 1078939194#2 1078939194#3"/>
    </vehicle>
    <vehicle id="359" depart="359.00">
        <route edges="1078939204 428147193#1"/>
    </vehicle>
    <vehicle id="361" depart="361.00">
        <route edges="24450885#1 1078939205"/>
    </vehicle>
    <vehicle id="362" depart="362.00">
        <route edges="24450885#1 1078939194#1"/>
    </vehicle>
    <vehicle id="366" depart="366.00">
        <route edges="69156898#1 69156898#2 1078939195"/>
    </vehicle>
    <vehicle id="367" depart="367.00">
        <route edges="428147193#1 428147193#2"/>
    </vehicle>
    <vehicle id="368" depart="368.00">
        <route edges="24450885#0 24450885#1 1078939205 1092843298#0 1092843298#1 69157154#0 69157154#1 1078939206"/>
    </vehicle>
    <vehicle id="369" depart="369.00">
        <route edges="39692894#1 39692894#2 1092843304#0 1078939205 1092843298#0 1092843298#1 69157154#0 69157154#1 1078939206"/>
    </vehicle>
    <vehicle id="370" depart="370.00">
        <route edges="1092843298#1 69157154#0 69157154#1"/>
    </vehicle>
    <vehicle id="375" depart="375.00">
        <route edges="39692894#2 1092843304#0 1078939205"/>
    </vehicle>
    <vehicle id="376" depart="376.00">
        <route edges="69152604 69156898#0 69156898#1 69156898#2"/>
    </vehicle>
    <vehicle id="377" depart="377.00">
        <route edges="39692894#1 39692894#2"/>
    </vehicle>
    <vehicle id="378" depart="378.00">
        <route edges="69152604"/>
    </vehicle>
    <vehicle id="382" depart="382.00">
        <route edges="1078939204 428147193#1"/>
    </vehicle>
    <vehicle id="383" depart="383.00">
        <route edges="39692894#0 39692894#1 39692894#2 1092843304#0 1078939194#1 1078939194#2 1078939194#3"/>
    </vehicle>
    <vehicle id="384" depart="384.00">
        <route edges="1092843304#0 1078939205 1092843298#0 1092843298#1 69157154#0 69157154#1"/>
    </vehicle>
    <vehicle id="385" depart="385.00">
        <route edges="39692894#0 39692894#1 39692894#2 1092843304#0"/>
    </vehicle>
    <vehicle id="390" depart="390.00">
        <route edges="24450885#1 1078939205 1092843298#0"/>
    </vehicle>
    <vehicle id="392" depart="392.00">
        <route edges="24450885#1 1078939205 1092843298#0"/>
    </vehicle>
    <vehicle id="395" depart="395.00">
        <route edges="1078939204 1078939194#1"/>
    </vehicle>
    <vehicle id="398" depart="398.00">
        <route edges="69156898#1 69156898#2"/>
    </vehicle>
    <vehicle id="401" depart="401.00">
        <route edges="1078939194#1 1078939194#2"/>
    </vehicle>
    <vehicle id="402" depart="402.00">
        <route edges="39692894#1 39692894#2 1092843304#0 1078939194#1 1078939194#2 1078939194#3"/>
    </vehicle>
    <vehicle id="403" depart="403.00">
        <route edges="69156898#2 428147193#1"/>
    </vehicle>
    <vehicle id="405" depart="405.00">
        <route edges="24450885#0 24450885#1 1078939205 1092843298#0 1092843298#1 69157154#0"/>
    </vehicle>
    <vehicle id="406" depart="406.00">
        <route edges="1092843298#1"/>
    </vehicle>
    <vehicle id="407" depart="407.00">
        <route edges="39692894#1 39692894#2 1092843304#0"/>
    </vehicle>
    <vehicle id="408" depart="408.00">
        <route edges="1092843298#0 1092843298#1"/>
    </vehicle>
    <vehicle id="410" depart="410.00">
        <route edges="69156898#0 69156898#1 69156898#2 1078939205 1092843298#0 1092843298#1 69157154#0 69157154#1"/>
    </vehicle>
    <vehicle id="413" depart="413.00">
        <route edges="1078939194#2 1078939194#3"/>
    </vehicle>
    <vehicle id="414" depart="414.00">
        <route edges="69156898#0 69156898#1 69156898#2 1078939205 1092843298#0"/>
    </vehicle>
    <vehicle id="415" depart="415.00">
        <route edges="428147193#1 428147193#2"/>
    </vehicle>
    <vehicle id="416" depart="416.00">
        <route edges="69156898#1 69156898#2"/>
    </vehicle>
    <vehicle id="418" depart="418.00">
        <route edges="1092843304#0 1078939205 1092843298#0"/>
    </vehicle>
    <vehicle id="420" depart="420.00">
        <route edges="69156898#1 69156898#2 1078939194#1 1078939194#2 1078939194#3"/>
    </vehicle>
    <vehicle id="423" depart="423.00">
        <route edges="69156898#0 69156898#1 69156898#2 1078939205 1092843298#0 1092843298#1 69157154#0 69157154#1 1078939206"/>
    </vehicle>
    <vehicle id="425" depart="425.00">
        <route edges="24450885#1 1078939194#1 1078939194#2"/>
    </vehicle>
    <vehicle id="426" depart="426.00">
        <route edges="24450885#0 24450885#1 1078939205 1092843298#0 1092843298#1 69157154#0"/>
    </vehicle>
    <vehicle id="429" depart="429.00">
        <route edges="39692894#2 1092843304#0 1078939205 1092843298#0 1092843298#1 69157154#0"/>
    </vehicle>
    <vehicle id="430" depart="430.00">
        <route edges="69156898#1 69156898#2 1078939205 1092843298#0 1092843298#1 69157154#0"/>
    </vehicle>
    <vehicle id="431" depart="431.00">
        <route edges="69156898#2 1078939205 1092843298#0 1092843298#1 69157154#0 69157154#1"/>
    </vehicle>
    <vehicle id="435" depart="435.00">