<?xml version="1.0" encoding="UTF-8"?>

<!-- generated on 2024-05-30 00:01:11 by Eclipse SUMO duarouter Version 1.19.0
<configuration xmlns:xsi="http://www.w3.org/2001/XMLSchema-instance" xsi:noNamespaceSchemaLocation="http://sumo.dlr.de/xsd/duarouterConfiguration.xsd">

    <input>
        <net-file value="sumodata\tj.net.xml"/>
        <route-files value="sumodata/trips.trips.xml"/>
    </input>

    <output>
        <output-file value="sumodata\tj.rou.xml"/>
    </output>

    <time>
        <begin value="0"/>
        <end value="1000.0"/>
    </time>

    <report>
        <no-warnings value="true"/>
        <ignore-errors value="true"/>
        <no-step-log value="true"/>
    </report>

</configuration>
-->

<routes xmlns:xsi="http://www.w3.org/2001/XMLSchema-instance" xsi:noNamespaceSchemaLocation="http://sumo.dlr.de/xsd/routes_file.xsd">
    <vehicle id="1" depart="1.00">
        <route edges="39692894#2 1092843304#0 1078939194#1 1078939194#2"/>
    </vehicle>
    <vehicle id="3" depart="3.00">
        <route edges="137107928#0 137107928#1 137107928#2 137107928#3 137107928#4"/>
    </vehicle>
    <vehicle id="4" depart="4.00">
        <route edges="-137107928#3 -137107928#2"/>
    </vehicle>
    <vehicle id="6" depart="6.00">
        <route edges="24450885#1 1078939195"/>
    </vehicle>
    <vehicle id="10" depart="10.00">
        <route edges="137107928#0 137107928#1 137107928#2 137107928#3 137107928#4 -137107928#4 -137107928#3 -137107928#2 -137107928#1 -137107928#0 1078939193 69152604 69156898#0 69156898#1 69156898#2 428147193#1"/>
    </vehicle>
    <vehicle id="12" depart="12.00">
        <route edges="69156898#1 69156898#2 428147193#1 -24465880#1 -24465880#0 24465880#0 24465880#1"/>
    </vehicle>
    <vehicle id="13" depart="13.00">
        <route edges="1078939204 1078939205 1092843298#0 1092843298#1 69157154#0 69157154#1 1078939206"/>
    </vehicle>
    <vehicle id="14" depart="14.00">
        <route edges="-137107928#1 -137107928#0 1078939193 69152604 69156898#0 69156898#1 69156898#2 1078939205 1092843298#0 1092843298#1 69157154#0"/>
    </vehicle>
    <vehicle id="15" depart="15.00">
        <route edges="-137107928#0 1078939193 69152604 69156898#0 69156898#1 69156898#2 428147193#1"/>
    </vehicle>
    <vehicle id="16" depart="16.00">
        <route edges="1078939193 69152604 69156898#0"/>
    </vehicle>
    <vehicle id="19" depart="19.00">
        <route edges="69157154#1"/>
    </vehicle>
    <vehicle id="20" depart="20.00">
        <route edges="1078939194#2"/>
    </vehicle>
    <vehicle id="21" depart="21.00">
        <route edges="137107928#0 137107928#1 137107928#2 137107928#3"/>
    </vehicle>
    <vehicle id="24" depart="24.00">
        <route edges="1078939193"/>
    </vehicle>
    <vehicle id="25" depart="25.00">
        <route edges="-137107928#3"/>
    </vehicle>
    <vehicle id="26" depart="26.00">
        <route edges="137107928#2 137107928#3 137107928#4 -137107928#4 -137107928#3 -137107928#2 -137107928#1 -137107928#0 1078939193 69152604 69156898#0 69156898#1 69156898#2 428147193#1 -24465880#1 -24465880#0 24465880#0 24465880#1"/>
    </vehicle>
    <vehicle id="27" depart="27.00">
        <route edges="69156898#2 428147193#1 -24465880#1"/>
    </vehicle>
    <vehicle id="28" depart="28.00">
        <route edges="137107928#3 137107928#4 -137107928#4 -137107928#3 -137107928#2 -137107928#1 -137107928#0 1078939193 69152604 69156898#0 69156898#1 69156898#2 1078939205 1092843298#0"/>
    </vehicle>
    <vehicle id="31" depart="31.00">
        <route edges="137107928#0 137107928#1 137107928#2 137107928#3 137107928#4 -137107928#4 -137107928#3 -137107928#2 -137107928#1 -137107928#0 1078939193 69152604 69156898#0 69156898#1 69156898#2 1078939205 1092843298#0 1092843298#1 69157154#0 69157154#1 1078939206"/>
    </vehicle>
    <vehicle id="34" depart="34.00">
        <route edges="137107928#3 137107928#4 -137107928#4 -137107928#3 -137107928#2 -137107928#1 -137107928#0 1078939193 69152604 69156898#0 69156898#1 69156898#2 1078939205 1092843298#0 1092843298#1 69157154#0 69157154#1 1078939206"/>
    </vehicle>
    <vehicle id="36" depart="36.00">
        <route edges="-137107928#2 -137107928#1 -137107928#0 1078939193 69152604 69156898#0 69156898#1 69156898#2 1078939195"/>
    </vehicle>
    <vehicle id="37" depart="37.00">
        <route edges="-137107928#1 -137107928#0 1078939193 69152604 69156898#0 69156898#1 69156898#2 1078939194#1 1078939194#2"/>
    </vehicle>
    <vehicle id="39" depart="39.00">
        <route edges="39692894#2 1092843304#0"/>
    </vehicle>
    <vehicle id="40" depart="40.00">
        <route edges="39692894#2 1092843304#0 428147193#1"/>
    </vehicle>
    <vehicle id="41" depart="41.00">
        <route edges="-137107928#3 -137107928#2 -137107928#1 -137107928#0 1078939193 69152604 69156898#0 69156898#1 69156898#2 428147193#1 -24465880#1"/>
    </vehicle>
    <vehicle id="42" depart="42.00">
        <route edges="24465880#0 24465880#1 -24465880#1 -24465880#0"/>
    </vehicle>
    <vehicle id="45" depart="45.00">
        <route edges="-137107928#4 -137107928#3 -137107928#2 -137107928#1 -137107928#0 1078939193"/>
    </vehicle>
    <vehicle id="46" depart="46.00">
        <route edges="-137107928#3 -137107928#2 -137107928#1 -137107928#0 1078939193 69152604"/>
    </vehicle>
    <vehicle id="49" depart="49.00">
        <route edges="69156898#2 1078939205 1092843298#0 1092843298#1 69157154#0 69157154#1"/>
    </vehicle>
    <vehicle id="50" depart="50.00">
        <route edges="69156898#1 69156898#2 428147193#1 428147193#2"/>
    </vehicle>
    <vehicle id="54" depart="54.00">
        <route edges="-137107928#1 -137107928#0 1078939193 69152604 69156898#0 69156898#1 69156898#2 428147193#1 24450885#1"/>
    </vehicle>
    <vehicle id="57" depart="57.00">
        <route edges="137107928#1 137107928#2 137107928#3 137107928#4 -137107928#4 -137107928#3 -137107928#2 -137107928#1 -137107928#0 1078939193 69152604 69156898#0 69156898#1 69156898#2 428147193#1 428147193#2"/>
    </vehicle>
    <vehicle id="59" depart="59.00">
        <route edges="-137107928#3 -137107928#2 -137107928#1 -137107928#0 1078939193 69152604 69156898#0 69156898#1 69156898#2 428147193#1 428147193#2"/>
    </vehicle>
    <vehicle id="61" depart="61.00">
        <route edges="137107928#0 137107928#1 137107928#2 137107928#3 137107928#4 -137107928#4 -137107928#3 -137107928#2 -137107928#1 -137107928#0 1078939193"/>
    </vehicle>
    <vehicle id="64" depart="64.00">
        <route edges="39692894#0 39692894#1 39692894#2 1092843304#0 428147193#1 24450885#1"/>
    </vehicle>
    <vehicle id="68" depart="68.00">
        <route edges="-137107928#3 -137107928#2 -137107928#1 -137107928#0 1078939193 69152604 69156898#0 69156898#1"/>
    </vehicle>
    <vehicle id="69" depart="69.00">
        <route edges="137107928#0 137107928#1 137107928#2 137107928#3 137107928#4 -137107928#4 -137107928#3 -137107928#2 -137107928#1 -137107928#0 1078939193 69152604 69156898#0 69156898#1 69156898#2 1078939205 1092843298#0 1092843298#1 69157154#0"/>
    </vehicle>
    <vehicle id="72" depart="72.00">
        <route edges="137107928#0 137107928#1 137107928#2 137107928#3 137107928#4 -137107928#4 -137107928#3 -137107928#2 -137107928#1 -137107928#0"/>
    </vehicle>
    <vehicle id="75" depart="75.00">
        <route edges="24450885#1 428147193#1 428147193#2"/>
    </vehicle>
    <vehicle id="76" depart="76.00">
        <route edges="1078939193 69152604 69156898#0 69156898#1 69156898#2 1078939205 1092843298#0 1092843298#1"/>
    </vehicle>
    <vehicle id="78" depart="78.00">
        <route edges="24465880#1 24450885#1 1078939194#1 1078939194#2"/>
    </vehicle>
    <vehicle id="79" depart="79.00">
        <route edges="137107928#3 137107928#4 -137107928#4 -137107928#3 -137107928#2 -137107928#1 -137107928#0 1078939193 69152604 69156898#0 69156898#1 69156898#2 1078939205 1092843298#0"/>
    </vehicle>
    <vehicle id="81" depart="81.00">
        <route edges="-137107928#0 1078939193 69152604 69156898#0 69156898#1 69156898#2 428147193#1 24450885#1"/>
    </vehicle>
    <vehicle id="82" depart="82.00">
        <route edges="137107928#2 137107928#3 137107928#4 -137107928#4 -137107928#3"/>
    </vehicle>
    <vehicle id="87" depart="87.00">
        <route edges="24465880#1 24450885#1 428147193#1"/>
    </vehicle>
    <vehicle id="88" depart="88.00">
        <route edges="1078939204 428147193#1"/>
    </vehicle>
    <vehicle id="91" depart="91.00">
        <route edges="39692894#0 39692894#1 39692894#2 1092843304#0 428147193#1"/>
    </vehicle>
    <vehicle id="96" depart="96.00">
        <route edges="-137107928#1 -137107928#0 137107928#0 137107928#1 137107928#2 137107928#3"/>
    </vehicle>
    <vehicle id="97" depart="97.00">
        <route edges="-137107928#3 -137107928#2 -137107928#1 -137107928#0 1078939193 69152604 69156898#0 69156898#1 69156898#2 428147193#1"/>
    </vehicle>
    <vehicle id="98" depart="98.00">
        <route edges="137107928#1 137107928#2 137107928#3 137107928#4 -137107928#4 -137107928#3 -137107928#2 -137107928#1 -137107928#0 1078939193 69152604 69156898#0 69156898#1 69156898#2 1078939194#1 1078939194#2 1078939194#3"/>
    </vehicle>
    <vehicle id="99" depart="99.00">
        <route edges="69156898#0 69156898#1 69156898#2 1078939205 1092843298#0 1092843298#1 69157154#0"/>
    </vehicle>
    <vehicle id="100" depart="100.00">
        <route edges="1078939205 1092843298#0 1092843298#1 69157154#0 69157154#1"/>
    </vehicle>
    <vehicle id="103" depart="103.00">
        <route edges="69152604 69156898#0 69156898#1 69156898#2"/>
    </vehicle>
    <vehicle id="104" depart="104.00">
        <route edges="137107928#2 137107928#3 137107928#4 -137107928#4 -137107928#3 -137107928#2 -137107928#1 -137107928#0"/>
    </vehicle>
    <vehicle id="105" depart="105.00">
        <route edges="-137107928#1 -137107928#0 1078939193 69152604 69156898#0 69156898#1 69156898#2 428147193#1 -24465880#1"/>
    </vehicle>
    <vehicle id="108" depart="108.00">
        <route edges="-137107928#1 -137107928#0 1078939193 69152604 69156898#0 69156898#1 69156898#2 428147193#1 -24465880#1 -24465880#0 24465880#0 24465880#1"/>
    </vehicle>
    <vehicle id="109" depart="109.00">
        <route edges="69152604 69156898#0 69156898#1 69156898#2 428147193#1 24450885#1"/>
    </vehicle>
    <vehicle id="113" depart="113.00">
        <route edges="-137107928#1 -137107928#0 137107928#0 137107928#1 137107928#2 137107928#3 137107928#4 -137107928#4 -137107928#3 -137107928#2"/>
    </vehicle>
    <vehicle id="115" depart="115.00">
        <route edges="-137107928#1 -137107928#0 137107928#0 137107928#1"/>
    </vehicle>
    <vehicle id="116" depart="116.00">
        <route edges="137107928#1 137107928#2 137107928#3 137107928#4 -137107928#4 -137107928#3 -137107928#2 -137107928#1 -137107928#0 1078939193 69152604"/>
    </vehicle>
    <vehicle id="117" depart="117.00">
        <route edges="137107928#2 137107928#3 137107928#4 -137107928#4 -137107928#3 -137107928#2 -137107928#1 -137107928#0 1078939193 69152604"/>
    </vehicle>
    <vehicle id="121" depart="121.00">
        <route edges="137107928#2 137107928#3 137107928#4 -137107928#4 -137107928#3 -137107928#2 -137107928#1 -137107928#0"/>
    </vehicle>
    <vehicle id="122" depart="122.00">
        <route edges="-137107928#2 -137107928#1 -137107928#0 1078939193 69152604 69156898#0 69156898#1 69156898#2 428147193#1 -24465880#1 -24465880#0 24465880#0 24465880#1"/>
    </vehicle>
    <vehicle id="123" depart="123.00">
        <route edges="-137107928#1 -137107928#0 1078939193 69152604 69156898#0 69156898#1 69156898#2 1078939205 1092843298#0 1092843298#1 69157154#0 69157154#1 1078939206"/>
    </vehicle>
    <vehicle id="124" depart="124.00">
        <route edges="-137107928#2 -137107928#1 -137107928#0 1078939193 69152604 69156898#0 69156898#1 69156898#2 1078939205"/>
    </vehicle>
    <vehicle id="126" depart="126.00">
        <route edges="69152604 69156898#0 69156898#1 69156898#2 1078939205 1092843298#0 1092843298#1"/>
    </vehicle>
    <vehicle id="127" depart="127.00">
        <route edges="24465880#0 24465880#1 24450885#1 1078939205 1092843298#0 1092843298#1 69157154#0 69157154#1"/>
    </vehicle>
    <vehicle id="132" depart="132.00">
        <route edges="-137107928#3 -137107928#2 -137107928#1 -137107928#0 1078939193 69152604 69156898#0 69156898#1 69156898#2"/>
    </vehicle>
    <vehicle id="134" depart="134.00">
        <route edges="1092843304#0 428147193#1"/>
    </vehicle>
    <vehicle id="136" depart="136.00">
        <route edges="137107928#3 137107928#4 -137107928#4 -137107928#3 -137107928#2 -137107928#1 -137107928#0 1078939193 69152604 69156898#0 69156898#1 69156898#2 428147193#1 24450885#1"/>
    </vehicle>
    <vehicle id="137" depart="137.00">
        <route edges="39692894#2 1092843304#0 428147193#1"/>
    </vehicle>
    <vehicle id="138" depart="138.00">
        <route edges="1078939193 69152604 69156898#0 69156898#1 69156898#2 1078939205 1092843298#0 1092843298#1 69157154#0 69157154#1 1078939206"/>
    </vehicle>
    <vehicle id="140" depart="140.00">
        <route edges="24465880#1 24450885#1"/>
    </vehicle>
    <vehicle id="142" depart="142.00">
        <route edges="69156898#0"/>
    </vehicle>
    <vehicle id="143" depart="143.00">
        <route edges="24450885#0 24450885#1 1078939195"/>
    </vehicle>
    <vehicle id="144" depart="144.00">
        <route edges="1092843304#0"/>
    </vehicle>
    <vehicle id="146" depart="146.00">
        <route edges="-137107928#4 -137107928#3 -137107928#2 -137107928#1 -137107928#0 1078939193 69152604 69156898#0 69156898#1 69156898#2 428147193#1 428147193#2"/>
    </vehicle>
    <vehicle id="147" depart="147.00">
        <route edges="69156898#0"/>
    </vehicle>
    <vehicle id="148" depart="148.00">
        <route edges="1078939193 69152604 69156898#0 69156898#1 69156898#2 428147193#1 428147193#2"/>
    </vehicle>
    <vehicle id="149" depart="149.00">
        <route edges="24465880#1 24450885#1 1078939205 1092843298#0 1092843298#1 69157154#0 69157154#1 1078939206"/>
    </vehicle>
    <vehicle id="157" depart="157.00">
        <route edges="428147193#1 24450885#1 1078939205 1092843298#0 1092843298#1 69157154#0"/>
    </vehicle>
    <vehicle id="158" depart="158.00">
        <route edges="-137107928#3 -137107928#2 -137107928#1 -137107928#0 137107928#0 137107928#1 137107928#2 137107928#3 137107928#4"/>
    </vehicle>
    <vehicle id="159" depart="159.00">
        <route edges="24465880#0 24465880#1 24450885#1 1078939205 1092843298#0 1092843298#1"/>
    </vehicle>
    <vehicle id="160" depart="160.00">
        <route edges="137107928#0 137107928#1 137107928#2 137107928#3 137107928#4 -137107928#4 -137107928#3 -137107928#2 -137107928#1 -137107928#0 1078939193 69152604 69156898#0 69156898#1 69156898#2 1078939205"/>
    </vehicle>
    <vehicle id="161" depart="161.00">
        <route edges="-137107928#3 -137107928#2 -137107928#1 -137107928#0 1078939193 69152604 69156898#0 69156898#1 69156898#2 428147193#1 -24465880#1 -24465880#0"/>
    </vehicle>
    <vehicle id="162" depart="162.00">
        <route edges="-137107928#4 -137107928#3 -137107928#2 -137107928#1 -137107928#0 1078939193 69152604 69156898#0 69156898#1 69156898#2 428147193#1 -24465880#1 -24465880#0 24465880#0 24465880#1"/>
    </vehicle>
    <vehicle id="164" depart="164.00">
        <route edges="39692894#2 1092843304#0 1078939194#1 1078939194#2"/>
    </vehicle>
    <vehicle id="165" depart="165.00">
        <route edges="39692894#2 1092843304#0 1078939205 1092843298#0"/>
    </vehicle>
    <vehicle id="167" depart="167.00">
        <route edges="-137107928#4 -137107928#3 -137107928#2 -137107928#1 -137107928#0 1078939193 69152604 69156898#0 69156898#1 69156898#2 1078939205 1092843298#0 1092843298#1 69157154#0 69157154#1 1078939206"/>
    </vehicle>
    <vehicle id="171" depart="171.00">
        <route edges="39692894#1 39692894#2 1092843304#0 1078939205"/>
    </vehicle>
    <vehicle id="172" depart="172.00">
        <route edges="-24465880#1 -24465880#0 24465880#0 24465880#1 24450885#1 428147193#1"/>
    </vehicle>
    <vehicle id="173" depart="173.00">
        <route edges="137107928#0 137107928#1 137107928#2 137107928#3 137107928#4 -137107928#4 -137107928#3 -137107928#2 -137107928#1 -137107928#0 1078939193 69152604 69156898#0 69156898#1 69156898#2 428147193#1 428147193#2"/>
    </vehicle>
    <vehicle id="174" depart="174.00">
        <route edges="-137107928#0 137107928#0 137107928#1 137107928#2 137107928#3 137107928#4 -137107928#4 -137107928#3 -137107928#2 -137107928#1"/>
    </vehicle>
    <vehicle id="175" depart="175.00">
        <route edges="-137107928#3 -137107928#2 -137107928#1 -137107928#0 1078939193 69152604"/>
    </vehicle>
    <vehicle id="176" depart="176.00">
        <route edges="-137107928#2 -137107928#1 -137107928#0 1078939193 69152604"/>
    </vehicle>
    <vehicle id="177" depart="177.00">
        <route edges="-137107928#1 -137107928#0 1078939193"/>
    </vehicle>
    <vehicle id="180" depart="180.00">
        <route edges="-24465880#1 -24465880#0 24465880#0 24465880#1 24450885#1 1078939194#1"/>
    </vehicle>
    <vehicle id="181" depart="181.00">
        <route edges="428147193#1 -24465880#1"/>
    </vehicle>
    <vehicle id="183" depart="183.00">
        <route edges="24465880#0 24465880#1"/>
    </vehicle>
    <vehicle id="184" depart="184.00">
        <route edges="39692894#0 39692894#1 39692894#2 1092843304#0 1078939194#1 1078939194#2"/>
    </vehicle>
    <vehicle id="185" depart="185.00">
        <route edges="428147193#1 24450885#1 1078939205 1092843298#0"/>
    </vehicle>
    <vehicle id="187" depart="187.00">
        <route edges="69156898#1 69156898#2 428147193#1 428147193#2"/>
    </vehicle>
    <vehicle id="188" depart="188.00">
        <route edges="137107928#2 137107928#3 137107928#4 -137107928#4 -137107928#3 -137107928#2 -137107928#1 -137107928#0 1078939193 69152604 69156898#0 69156898#1 69156898#2 428147193#1 -24465880#1"/>
    </vehicle>
    <vehicle id="189" depart="189.00">
        <route edges="-24465880#1 -24465880#0 24465880#0 24465880#1"/>
    </vehicle>
    <vehicle id="190" depart="190.00">
        <route edges="69157154#0"/>
    </vehicle>
    <vehicle id="191" depart="191.00">
        <route edges="69156898#0 69156898#1 69156898#2 428147193#1 -24465880#1 -24465880#0 24465880#0 24465880#1"/>
    </vehicle>
    <vehicle id="193" depart="193.00">
        <route edges="39692894#0 39692894#1 39692894#2 1092843304#0 1078939205 1092843298#0 1092843298#1 69157154#0 69157154#1 1078939206"/>
    </vehicle>
    <vehicle id="194" depart="194.00">
        <route edges="-137107928#3 -137107928#2 -137107928#1 -137107928#0 1078939193 69152604 69156898#0 69156898#1 69156898#2 428147193#1"/>
    </vehicle>
    <vehicle id="195" depart="195.00">
        <route edges="428147193#1 428147193#2"/>
    </vehicle>
    <vehicle id="197" depart="197.00">
        <route edges="137107928#0 137107928#1 137107928#2 137107928#3 137107928#4 -137107928#4 -137107928#3 -137107928#2 -137107928#1 -137107928#0"/>
    </vehicle>
    <vehicle id="200" depart="200.00">
        <route edges="-137107928#3 -137107928#2 -137107928#1 -137107928#0 1078939193 69152604 69156898#0 69156898#1 69156898#2 1078939194#1 1078939194#2 1078939194#3"/>
    </vehicle>
    <vehicle id="201" depart="201.00">
        <route edges="39692894#0 39692894#1 39692894#2 1092843304#0 1078939205 1092843298#0 1092843298#1"/>
    </vehicle>
    <vehicle id="205" depart="205.00">
        <route edges="1078939204 1078939205 1092843298#0 1092843298#1 69157154#0 69157154#1 1078939206"/>
    </vehicle>
    <vehicle id="209" depart="209.00">
        <route edges="137107928#3 137107928#4 -137107928#4 -137107928#3 -137107928#2 -137107928#1 -137107928#0 137107928#0 137107928#1"/>
    </vehicle>
    <vehicle id="213" depart="213.00">
        <route edges="-137107928#4 -137107928#3 -137107928#2 -137107928#1 -137107928#0 1078939193 69152604 69156898#0 69156898#1 69156898#2 428147193#1 428147193#2"/>
    </vehicle>
    <vehicle id="214" depart="214.00">
        <route edges="-137107928#2 -137107928#1 -137107928#0 1078939193 69152604 69156898#0 69156898#1 69156898#2 1078939194#1"/>
    </vehicle>
    <vehicle id="215" depart="215.00">
        <route edges="-24465880#1"/>
    </vehicle>
    <vehicle id="217" depart="217.00">
        <route edges="24450885#1 428147193#1"/>
    </vehicle>
    <vehicle id="219" depart="219.00">
        <route edges="137107928#0 137107928#1 137107928#2 137107928#3 137107928#4"/>
    </vehicle>
    <vehicle id="220" depart="220.00">
        <route edges="69152604 69156898#0 69156898#1 69156898#2 428147193#1 428147193#2"/>
    </vehicle>
    <vehicle id="221" depart="221.00">
        <route edges="1092843304#0 428147193#1 24450885#1"/>
    </vehicle>
    <vehicle id="222" depart="222.00">
        <route edges="137107928#2 137107928#3 137107928#4 -137107928#4 -137107928#3 -137107928#2 -137107928#1 -137107928#0"/>
    </vehicle>
    <vehicle id="223" depart="223.00">
        <route edges="137107928#0 137107928#1 137107928#2 137107928#3 137107928#4 -137107928#4 -137107928#3 -137107928#2 -137107928#1 -137107928#0 1078939193 69152604 69156898#0 69156898#1 69156898#2 1078939205 1092843298#0 1092843298#1"/>
    </vehicle>
    <vehicle id="224" depart="224.00">
        <route edges="-137107928#3 -137107928#2 -137107928#1 -137107928#0 1078939193 69152604 69156898#0 69156898#1"/>
    </vehicle>
    <vehicle id="227" depart="227.00">
        <route edges="69156898#2 1078939205 1092843298#0 1092843298#1 69157154#0 69157154#1 1078939206"/>
    </vehicle>
    <vehicle id="228" depart="228.00">
        <route edges="-137107928#0 1078939193 69152604 69156898#0 69156898#1 69156898#2 428147193#1 428147193#2"/>
    </vehicle>
    <vehicle id="230" depart="230.00">
        <route edges="-137107928#1 -137107928#0 1078939193 69152604 69156898#0"/>
    </vehicle>
    <vehicle id="235" depart="235.00">
        <route edges="137107928#0 137107928#1 137107928#2 137107928#3 137107928#4 -137107928#4 -137107928#3 -137107928#2 -137107928#1 -137107928#0 1078939193 69152604 69156898#0 69156898#1 69156898#2 1078939205 1092843298#0"/>
    </vehicle>
    <vehicle id="239" depart="239.00">
        <route edges="69156898#2 428147193#1 -24465880#1 -24465880#0"/>
    </vehicle>
    <vehicle id="241" depart="241.00">
        <route edges="137107928#2 137107928#3 137107928#4 -137107928#4 -137107928#3 -137107928#2 -137107928#1 -137107928#0 1078939193 69152604 69156898#0 69156898#1 69156898#2 1078939205 1092843298#0 1092843298#1 69157154#0 69157154#1 1078939206"/>
    </vehicle>
    <vehicle id="243" depart="243.00">
        <route edges="39692894#0 39692894#1 39692894#2 1092843304#0 1078939194#1 1078939194#2"/>
    </vehicle>
    <vehicle id="247" depart="247.00">
        <route edges="137107928#2 137107928#3 137107928#4 -137107928#4 -137107928#3 -137107928#2 -137107928#1 -137107928#0 1078939193 69152604 69156898#0 69156898#1 69156898#2 1078939194#1 1078939194#2 1078939194#3"/>
    </vehicle>
    <vehicle id="249" depart="249.00">
        <route edges="137107928#0 137107928#1 137107928#2"/>
    </vehicle>
    <vehicle id="250" depart="250.00">
        <route edges="24465880#1 24450885#1 1078939194#1"/>
    </vehicle>
    <vehicle id="252" depart="252.00">
        <route edges="137107928#2 137107928#3 137107928#4 -137107928#4 -137107928#3 -137107928#2 -137107928#1 -137107928#0 1078939193 69152604 69156898#0 69156898#1 69156898#2 1078939205 1092843298#0 1092843298#1 69157154#0 69157154#1 1078939206"/>
    </vehicle>
    <vehicle id="254" depart="254.00">
        <route edges="137107928#3 137107928#4 -137107928#4 -137107928#3 -137107928#2 -137107928#1 -137107928#0 1078939193 69152604 69156898#0 69156898#1 69156898#2 428147193#1"/>
    </vehicle>
    <vehicle id="255" depart="255.00">
        <route edges="24465880#0 24465880#1 24450885#1 428147193#1"/>
    </vehicle>
    <vehicle id="258" depart="258.00">
        <route edges="69156898#2 1078939205 1092843298#0 1092843298#1 69157154#0 69157154#1 1078939206"/>
    </vehicle>
    <vehicle id="259" depart="259.00">
        <route edges="69152604 69156898#0 69156898#1 69156898#2 428147193#1 -24465880#1 -24465880#0"/>
    </vehicle>
    <vehicle id="260" depart="260.00">
        <route edges="39692894#0 39692894#1 39692894#2 1092843304#0 428147193#1"/>
    </vehicle>
    <vehicle id="261" depart="261.00">
        <route edges="137107928#2 137107928#3 137107928#4 -137107928#4 -137107928#3 -137107928#2 -137107928#1 -137107928#0 1078939193 69152604"/>
    </vehicle>
    <vehicle id="262" depart="262.00">
        <route edges="137107928#0 137107928#1 137107928#2 137107928#3 137107928#4 -137107928#4 -137107928#3 -137107928#2 -137107928#1 -137107928#0 1078939193 69152604 69156898#0 69156898#1 69156898#2 428147193#1 -24465880#1 -24465880#0 24465880#0 24465880#1"/>
    </vehicle>
    <vehicle id="268" depart="268.00">
        <route edges="428147193#1 24450885#1 1078939205 1092843298#0 1092843298#1 69157154#0 69157154#1 1078939206"/>
    </vehicle>
    <vehicle id="271" depart="271.00">
        <route edges="137107928#0 137107928#1 137107928#2 137107928#3 137107928#4 -137107928#4 -137107928#3 -137107928#2 -137107928#1 -137107928#0 1078939193 69152604 69156898#0 69156898#1 69156898#2 428147193#1 24450885#1"/>
    </vehicle>
    <vehicle id="272" depart="272.00">
        <route edges="137107928#1 137107928#2 137107928#3 137107928#4 -137107928#4 -137107928#3"/>
    </vehicle>
    <vehicle id="273" depart="273.00">
        <route edges="-137107928#3 -137107928#2 -137107928#1 -137107928#0 1078939193 69152604 69156898#0 69156898#1 69156898#2 1078939195"/>
    </vehicle>
    <vehicle id="274" depart="274.00">
        <route edges="39692894#1 39692894#2 1092843304#0 1078939205"/>
    </vehicle>
    <vehicle id="276" depart="276.00">
        <route edges="39692894#1 39692894#2 1092843304#0 1078939195"/>
    </vehicle>
    <vehicle id="278" depart="278.00">
        <route edges="1078939204 1078939205 1092843298#0"/>
    </vehicle>
    <vehicle id="279" depart="279.00">
        <route edges="39692894#0 39692894#1 39692894#2 1092843304#0 1078939205"/>
    </vehicle>
    <vehicle id="280" depart="280.00">
        <route edges="137107928#3 137107928#4 -137107928#4 -137107928#3 -137107928#2 -137107928#1 -137107928#0 1078939193 69152604 69156898#0 69156898#1 69156898#2 428147193#1 -24465880#1"/>
    </vehicle>
    <vehicle id="282" depart="282.00">
        <route edges="69152604 69156898#0 69156898#1 69156898#2 1078939205 1092843298#0"/>
    </vehicle>
    <vehicle id="283" depart="283.00">
        <route edges="137107928#1 137107928#2 137107928#3 137107928#4 -137107928#4 -137107928#3 -137107928#2 -137107928#1 -137107928#0 1078939193 69152604 69156898#0 69156898#1 69156898#2 428147193#1 -24465880#1 -24465880#0"/>
    </vehicle>
    <vehicle id="285" depart="285.00">
        <route edges="24450885#0 24450885#1 1078939205"/>
    </vehicle>
    <vehicle id="288" depart="288.00">
        <route edges="39692894#1 39692894#2 1092843304#0 1078939195"/>
    </vehicle>
    <vehicle id="290" depart="290.00">
        <route edges="69152604 69156898#0 69156898#1 69156898#2 1078939195"/>
    </vehicle>
    <vehicle id="294" depart="294.00">
        <route edges="39692894#2 1092843304#0 428147193#1"/>
    </vehicle>
    <vehicle id="295" depart="295.00">
        <route edges="24450885#0 24450885#1 1078939194#1"/>
    </vehicle>
    <vehicle id="296" depart="296.00">
        <route edges="137107928#0 137107928#1 137107928#2 137107928#3 137107928#4 -137107928#4 -137107928#3 -137107928#2 -137107928#1 -137107928#0 1078939193 69152604 69156898#0 69156898#1 69156898#2 1078939195"/>
    </vehicle>
    <vehicle id="299" depart="299.00">
        <route edges="1078939194#2 1078939194#3"/>
    </vehicle>
    <vehicle id="300" depart="300.00">
        <route edges="-137107928#1 -137107928#0 137107928#0 137107928#1 137107928#2 137107928#3"/>
    </vehicle>
    <vehicle id="301" depart="301.00">
        <route edges="24450885#0 24450885#1 1078939205 1092843298#0 1092843298#1"/>
    </vehicle>
    <vehicle id="302" depart="302.00">
        <route edges="39692894#1 39692894#2 1092843304#0 1078939194#1 1078939194#2 1078939194#3"/>
    </vehicle>
    <vehicle id="305" depart="305.00">
        <route edges="137107928#0 137107928#1 137107928#2 137107928#3 137107928#4 -137107928#4 -137107928#3 -137107928#2 -137107928#1 -137107928#0 1078939193 69152604 69156898#0 69156898#1 69156898#2 428147193#1"/>
    </vehicle>
    <vehicle id="306" depart="306.00">
        <route edges="1078939193 69152604 69156898#0 69156898#1 69156898#2 1078939205 1092843298#0 1092843298#1 69157154#0 69157154#1"/>
    </vehicle>
    <vehicle id="308" depart="308.00">
        <route edges="-24465880#1 -24465880#0 24465880#0 24465880#1 24450885#1 1078939195"/>
    </vehicle>
    <vehicle id="309" depart="309.00">
        <route edges="-137107928#3 -137107928#2 -137107928#1 -137107928#0 137107928#0 137107928#1 137107928#2 137107928#3 137107928#4"/>
    </vehicle>
    <vehicle id="310" depart="310.00">
        <route edges="69152604 69156898#0 69156898#1 69156898#2 1078939205 1092843298#0 1092843298#1 69157154#0"/>
    </vehicle>
    <vehicle id="311" depart="311.00">
        <route edges="24465880#0 24465880#1 24450885#1"/>
    </vehicle>
    <vehicle id="312" depart="312.00">
        <route edges="-137107928#1 -137107928#0 1078939193 69152604 69156898#0 69156898#1 69156898#2 1078939205 1092843298#0 1092843298#1 69157154#0"/>
    </vehicle>
    <vehicle id="313" depart="313.00">
        <route edges="24450885#1 1078939194#1"/>
    </vehicle>
    <vehicle id="314" depart="314.00">
        <route edges="24450885#0 -24465880#1 -24465880#0"/>
    </vehicle>
    <vehicle id="317" depart="317.00">
        <route edges="24465880#1 24450885#1 1078939205"/>
    </vehicle>
    <vehicle id="319" depart="319.00">