<?xml version="1.0" encoding="UTF-8"?>

<!-- generated on 2024-05-29 23:10:21 by Eclipse SUMO duarouter Version 1.19.0
<configuration xmlns:xsi="http://www.w3.org/2001/XMLSchema-instance" xsi:noNamespaceSchemaLocation="http://sumo.dlr.de/xsd/duarouterConfiguration.xsd">

    <input>
        <net-file value="sumodata\tj.net.xml"/>
        <route-files value="sumodata/trips.trips.xml"/>
    </input>

    <output>
        <output-file value="sumodata\tj.rou.xml"/>
    </output>

    <time>
        <begin value="0"/>
        <end value="1000.0"/>
    </time>

    <report>
        <no-warnings value="true"/>
        <ignore-errors value="true"/>
        <no-step-log value="true"/>
    </report>

</configuration>
-->

<routes xmlns:xsi="http://www.w3.org/2001/XMLSchema-instance" xsi:noNamespaceSchemaLocation="http://sumo.dlr.de/xsd/routes_file.xsd">
    <vehicle id="4" depart="4.00">
        <route edges="69156898#0 69156898#1 69156898#2 1078939195"/>
    </vehicle>
    <vehicle id="6" depart="6.00">
        <route edges="137107928#0 137107928#1 137107928#2 137107928#3 137107928#4 -137107928#4 -137107928#3 -137107928#2 -137107928#1 -137107928#0 1078939193 69152604 69156898#0 69156898#1 69156898#2 428147193#1 -24465880#1 -24465880#0"/>
    </vehicle>
    <vehicle id="7" depart="7.00">
        <route edges="69152604 69156898#0 69156898#1 69156898#2 1078939205 1092843298#0"/>
    </vehicle>
    <vehicle id="9" depart="9.00">
        <route edges="39692894#1 39692894#2 1092843304#0 428147193#1 -24465880#1 -24465880#0 24465880#0 24465880#1"/>
    </vehicle>
    <vehicle id="13" depart="13.00">
        <route edges="-137107928#4 -137107928#3 -137107928#2 -137107928#1 -137107928#0 1078939193 69152604 69156898#0 69156898#1"/>
    </vehicle>
    <vehicle id="14" depart="14.00">
        <route edges="-137107928#1 -137107928#0 1078939193 69152604 69156898#0 69156898#1 69156898#2 1078939194#1 1078939194#2 1078939194#3"/>
    </vehicle>
    <vehicle id="16" depart="16.00">
        <route edges="69157154#1"/>
    </vehicle>
    <vehicle id="17" depart="17.00">
        <route edges="24465880#0 24465880#1 24450885#1 1078939205"/>
    </vehicle>
    <vehicle id="22" depart="22.00">
        <route edges="-137107928#3 -137107928#2 -137107928#1 -137107928#0 1078939193 69152604 69156898#0 69156898#1 69156898#2 1078939205 1092843298#0 1092843298#1 69157154#0 69157154#1 1078939206"/>
    </vehicle>
    <vehicle id="23" depart="23.00">
        <route edges="137107928#1 137107928#2 137107928#3 137107928#4 -137107928#4 -137107928#3 -137107928#2 -137107928#1 -137107928#0 1078939193 69152604 69156898#0 69156898#1 69156898#2 1078939205"/>
    </vehicle>
    <vehicle id="24" depart="24.00">
        <route edges="137107928#3 137107928#4 -137107928#4 -137107928#3 -137107928#2 -137107928#1 -137107928#0 1078939193 69152604 69156898#0 69156898#1 69156898#2 1078939194#1 1078939194#2"/>
    </vehicle>
    <vehicle id="25" depart="25.00">
        <route edges="-137107928#2 -137107928#1 -137107928#0 137107928#0 137107928#1 137107928#2 137107928#3"/>
    </vehicle>
    <vehicle id="28" depart="28.00">
        <route edges="1078939205 1092843298#0 1092843298#1 69157154#0 69157154#1"/>
    </vehicle>
    <vehicle id="30" depart="30.00">
        <route edges="-137107928#0 137107928#0 137107928#1 137107928#2 137107928#3"/>
    </vehicle>
    <vehicle id="35" depart="35.00">
        <route edges="1078939193 69152604"/>
    </vehicle>
    <vehicle id="36" depart="36.00">
        <route edges="1092843298#0"/>
    </vehicle>
    <vehicle id="38" depart="38.00">
        <route edges="137107928#2 137107928#3 137107928#4 -137107928#4 -137107928#3 -137107928#2 -137107928#1 -137107928#0 1078939193 69152604 69156898#0 69156898#1 69156898#2 428147193#1 -24465880#1 -24465880#0"/>
    </vehicle>
    <vehicle id="41" depart="41.00">
        <route edges="39692894#0 39692894#1 39692894#2 1092843304#0 1078939205"/>
    </vehicle>
    <vehicle id="42" depart="42.00">
        <route edges="137107928#3 137107928#4 -137107928#4 -137107928#3 -137107928#2 -137107928#1 -137107928#0 1078939193 69152604 69156898#0"/>
    </vehicle>
    <vehicle id="43" depart="43.00">
        <route edges="39692894#1 39692894#2 1092843304#0 1078939194#1 1078939194#2"/>
    </vehicle>
    <vehicle id="44" depart="44.00">
        <route edges="69156898#0 69156898#1 69156898#2 1078939205 1092843298#0 1092843298#1 69157154#0 69157154#1 1078939206"/>
    </vehicle>
    <vehicle id="45" depart="45.00">
        <route edges="137107928#1 137107928#2 137107928#3 137107928#4 -137107928#4 -137107928#3 -137107928#2 -137107928#1 -137107928#0 1078939193 69152604 69156898#0 69156898#1 69156898#2 1078939205"/>
    </vehicle>
    <vehicle id="46" depart="46.00">
        <route edges="69157154#0 69157154#1 1078939206"/>
    </vehicle>
    <vehicle id="47" depart="47.00">
        <route edges="-137107928#3 -137107928#2 -137107928#1 -137107928#0 1078939193 69152604 69156898#0 69156898#1 69156898#2"/>
    </vehicle>
    <vehicle id="50" depart="50.00">
        <route edges="39692894#0 39692894#1 39692894#2 1092843304#0 1078939195"/>
    </vehicle>
    <vehicle id="51" depart="51.00">
        <route edges="1092843304#0 1078939205 1092843298#0 1092843298#1 69157154#0 69157154#1 1078939206"/>
    </vehicle>
    <vehicle id="55" depart="55.00">
        <route edges="69156898#0 69156898#1 69156898#2 1078939195"/>
    </vehicle>
    <vehicle id="58" depart="58.00">
        <route edges="137107928#1 137107928#2 137107928#3 137107928#4 -137107928#4 -137107928#3 -137107928#2 -137107928#1 -137107928#0 1078939193 69152604 69156898#0 69156898#1 69156898#2 1078939194#1 1078939194#2"/>
    </vehicle>
    <vehicle id="62" depart="62.00">
        <route edges="137107928#1"/>
    </vehicle>
    <vehicle id="66" depart="66.00">
        <route edges="24465880#1 24450885#1 428147193#1"/>
    </vehicle>
    <vehicle id="67" depart="67.00">
        <route edges="137107928#3 137107928#4 -137107928#4 -137107928#3 -137107928#2 -137107928#1 -137107928#0 1078939193 69152604 69156898#0 69156898#1 69156898#2 1078939195"/>
    </vehicle>
    <vehicle id="68" depart="68.00">
        <route edges="137107928#1 137107928#2 137107928#3 137107928#4 -137107928#4 -137107928#3 -137107928#2 -137107928#1 -137107928#0"/>
    </vehicle>
    <vehicle id="71" depart="71.00">
        <route edges="69156898#2 1078939205 1092843298#0 1092843298#1"/>
    </vehicle>
    <vehicle id="72" depart="72.00">
        <route edges="69156898#1 69156898#2 1078939194#1 1078939194#2"/>
    </vehicle>
    <vehicle id="77" depart="77.00">
        <route edges="1078939193 69152604 69156898#0 69156898#1 69156898#2 1078939194#1"/>
    </vehicle>
    <vehicle id="78" depart="78.00">
        <route edges="69156898#1 69156898#2 1078939205 1092843298#0"/>
    </vehicle>
    <vehicle id="81" depart="81.00">
        <route edges="69156898#2 428147193#1 -24465880#1"/>
    </vehicle>
    <vehicle id="86" depart="86.00">
        <route edges="1078939205 1092843298#0 1092843298#1 69157154#0 69157154#1 1078939206"/>
    </vehicle>
    <vehicle id="88" depart="88.00">
        <route edges="24450885#0 24450885#1 1078939194#1 1078939194#2"/>
    </vehicle>
    <vehicle id="89" depart="89.00">
        <route edges="39692894#0 39692894#1 39692894#2 1092843304#0 1078939205 1092843298#0 1092843298#1 69157154#0"/>
    </vehicle>
    <vehicle id="90" depart="90.00">
        <route edges="24465880#1 24450885#1 428147193#1"/>
    </vehicle>
    <vehicle id="91" depart="91.00">
        <route edges="137107928#1 137107928#2 137107928#3 137107928#4 -137107928#4 -137107928#3 -137107928#2 -137107928#1 -137107928#0 1078939193 69152604 69156898#0 69156898#1 69156898#2 1078939195"/>
    </vehicle>
    <vehicle id="93" depart="93.00">
        <route edges="39692894#1 39692894#2 1092843304#0 1078939205 1092843298#0"/>
    </vehicle>
    <vehicle id="95" depart="95.00">
        <route edges="-137107928#2 -137107928#1 -137107928#0 137107928#0 137107928#1 137107928#2 137107928#3 137107928#4"/>
    </vehicle>
    <vehicle id="96" depart="96.00">
        <route edges="137107928#0 137107928#1 137107928#2 137107928#3 137107928#4 -137107928#4 -137107928#3 -137107928#2 -137107928#1 -137107928#0 1078939193 69152604 69156898#0 69156898#1"/>
    </vehicle>
    <vehicle id="97" depart="97.00">
        <route edges="137107928#0 137107928#1 137107928#2 137107928#3 137107928#4 -137107928#4 -137107928#3 -137107928#2 -137107928#1 -137107928#0 1078939193 69152604 69156898#0 69156898#1 69156898#2 1078939205 1092843298#0 1092843298#1 69157154#0 69157154#1 1078939206"/>
    </vehicle>
    <vehicle id="98" depart="98.00">
        <route edges="-24465880#1 -24465880#0 24465880#0 24465880#1 24450885#1 1078939194#1"/>
    </vehicle>
    <vehicle id="99" depart="99.00">
        <route edges="137107928#1 137107928#2 137107928#3 137107928#4 -137107928#4 -137107928#3 -137107928#2 -137107928#1 -137107928#0 1078939193 69152604 69156898#0 69156898#1 69156898#2 428147193#1 -24465880#1 -24465880#0"/>
    </vehicle>
    <vehicle id="101" depart="101.00">
        <route edges="-137107928#4 -137107928#3"/>
    </vehicle>
    <vehicle id="103" depart="103.00">
        <route edges="-137107928#1 -137107928#0 1078939193 69152604 69156898#0 69156898#1 69156898#2 428147193#1 428147193#2"/>
    </vehicle>
    <vehicle id="105" depart="105.00">
        <route edges="69156898#1"/>
    </vehicle>
    <vehicle id="106" depart="106.00">
        <route edges="1078939193 69152604"/>
    </vehicle>
    <vehicle id="108" depart="108.00">
        <route edges="137107928#3 137107928#4 -137107928#4 -137107928#3 -137107928#2 -137107928#1 -137107928#0 1078939193 69152604 69156898#0 69156898#1 69156898#2 1078939205 1092843298#0 1092843298#1 69157154#0"/>
    </vehicle>
    <vehicle id="113" depart="113.00">
        <route edges="24465880#1 24450885#1 1078939195"/>
    </vehicle>
    <vehicle id="115" depart="115.00">
        <route edges="-137107928#1 -137107928#0 1078939193"/>
    </vehicle>
    <vehicle id="118" depart="118.00">
        <route edges="39692894#0 39692894#1 39692894#2 1092843304#0 1078939194#1 1078939194#2"/>
    </vehicle>
    <vehicle id="120" depart="120.00">
        <route edges="1092843304#0 428147193#1 24450885#1"/>
    </vehicle>
    <vehicle id="124" depart="124.00">
        <route edges="-137107928#0 1078939193 69152604 69156898#0 69156898#1 69156898#2 1078939205"/>
    </vehicle>
    <vehicle id="126" depart="126.00">
        <route edges="137107928#1 137107928#2 137107928#3 137107928#4 -137107928#4 -137107928#3 -137107928#2 -137107928#1 -137107928#0 1078939193 69152604 69156898#0 69156898#1 69156898#2 1078939194#1 1078939194#2 1078939194#3"/>
    </vehicle>
    <vehicle id="127" depart="127.00">
        <route edges="39692894#2 1092843304#0 428147193#1 -24465880#1"/>
    </vehicle>
    <vehicle id="129" depart="129.00">
        <route edges="-24465880#1 -24465880#0 24465880#0 24465880#1 428147193#2"/>
    </vehicle>
    <vehicle id="131" depart="131.00">
        <route edges="24450885#0 -24465880#1 -24465880#0"/>
    </vehicle>
    <vehicle id="133" depart="133.00">
        <route edges="69152604 69156898#0 69156898#1 69156898#2 1078939194#1 1078939194#2"/>
    </vehicle>
    <vehicle id="136" depart="136.00">
        <route edges="-137107928#2 -137107928#1 -137107928#0 1078939193 69152604 69156898#0 69156898#1"/>
    </vehicle>
    <vehicle id="141" depart="141.00">
        <route edges="1092843304#0 1078939205 1092843298#0"/>
    </vehicle>
    <vehicle id="143" depart="143.00">
        <route edges="-137107928#1 -137107928#0 137107928#0 137107928#1 137107928#2 137107928#3"/>
    </vehicle>
    <vehicle id="148" depart="148.00">
        <route edges="24465880#0 24465880#1 24450885#1 1078939205 1092843298#0 1092843298#1 69157154#0 69157154#1 1078939206"/>
    </vehicle>
    <vehicle id="150" depart="150.00">
        <route edges="1078939205 1092843298#0 1092843298#1"/>
    </vehicle>
    <vehicle id="151" depart="151.00">
        <route edges="137107928#2 137107928#3 137107928#4 -137107928#4 -137107928#3 -137107928#2 -137107928#1 -137107928#0 1078939193 69152604 69156898#0 69156898#1 69156898#2 1078939205 1092843298#0"/>
    </vehicle>
    <vehicle id="153" depart="153.00">
        <route edges="69156898#1 69156898#2 428147193#1 -24465880#1 -24465880#0 24465880#0 24465880#1"/>
    </vehicle>
    <vehicle id="160" depart="160.00">
        <route edges="137107928#2 137107928#3 137107928#4 -137107928#4 -137107928#3"/>
    </vehicle>
    <vehicle id="161" depart="161.00">
        <route edges="24450885#1 428147193#1 -24465880#1 -24465880#0 24465880#0 24465880#1"/>
    </vehicle>
    <vehicle id="162" depart="162.00">
        <route edges="1078939193 69152604 69156898#0 69156898#1 69156898#2 1078939205 1092843298#0 1092843298#1 69157154#0 69157154#1"/>
    </vehicle>
    <vehicle id="164" depart="164.00">
        <route edges="24450885#0 -24465880#1 -24465880#0"/>
    </vehicle>
    <vehicle id="165" depart="165.00">
        <route edges="69156898#0 69156898#1 69156898#2 1078939194#1"/>
    </vehicle>
    <vehicle id="166" depart="166.00">
        <route edges="-137107928#4 -137107928#3 -137107928#2 -137107928#1 -137107928#0 1078939193 69152604 69156898#0 69156898#1 69156898#2 1078939205 1092843298#0 1092843298#1"/>
    </vehicle>
    <vehicle id="168" depart="168.00">
        <route edges="69156898#0 69156898#1 69156898#2 1078939205 1092843298#0 1092843298#1"/>
    </vehicle>
    <vehicle id="170" depart="170.00">
        <route edges="69152604 69156898#0 69156898#1 69156898#2 428147193#1 428147193#2"/>
    </vehicle>
    <vehicle id="171" depart="171.00">
        <route edges="-137107928#4 -137107928#3 -137107928#2 -137107928#1 -137107928#0 1078939193 69152604 69156898#0 69156898#1 69156898#2 1078939194#1"/>
    </vehicle>
    <vehicle id="172" depart="172.00">
        <route edges="69152604 69156898#0 69156898#1 69156898#2 1078939205 1092843298#0"/>
    </vehicle>
    <vehicle id="173" depart="173.00">
        <route edges="-137107928#4 -137107928#3 -137107928#2 -137107928#1 -137107928#0 137107928#0 137107928#1 137107928#2 137107928#3"/>
    </vehicle>
    <vehicle id="174" depart="174.00">
        <route edges="24465880#0 24465880#1 -24465880#1 -24465880#0"/>
    </vehicle>
    <vehicle id="175" depart="175.00">
        <route edges="137107928#2 137107928#3 137107928#4 -137107928#4 -137107928#3 -137107928#2 -137107928#1"/>
    </vehicle>
    <vehicle id="176" depart="176.00">
        <route edges="1092843304#0 1078939194#1 1078939194#2"/>
    </vehicle>
    <vehicle id="177" depart="177.00">
        <route edges="24465880#0 24465880#1 24450885#1 1078939205"/>
    </vehicle>
    <vehicle id="179" depart="179.00">
        <route edges="137107928#1 137107928#2 137107928#3"/>
    </vehicle>
    <vehicle id="181" depart="181.00">
        <route edges="137107928#3"/>
    </vehicle>
    <vehicle id="184" depart="184.00">
        <route edges="137107928#2 137107928#3 137107928#4 -137107928#4 -137107928#3 -137107928#2 -137107928#1 -137107928#0 1078939193 69152604 69156898#0 69156898#1 69156898#2 428147193#1 -24465880#1"/>
    </vehicle>
    <vehicle id="185" depart="185.00">
        <route edges="1092843304#0 428147193#1 -24465880#1"/>
    </vehicle>
    <vehicle id="186" depart="186.00">
        <route edges="-137107928#1 -137107928#0 1078939193 69152604 69156898#0 69156898#1 69156898#2 1078939205 1092843298#0 1092843298#1"/>
    </vehicle>
    <vehicle id="187" depart="187.00">
        <route edges="39692894#2 1092843304#0 1078939205 1092843298#0 1092843298#1 69157154#0 69157154#1"/>
    </vehicle>
    <vehicle id="188" depart="188.00">
        <route edges="24450885#1 428147193#1 428147193#2"/>
    </vehicle>
    <vehicle id="191" depart="191.00">
        <route edges="137107928#0 137107928#1 137107928#2 137107928#3 137107928#4 -137107928#4 -137107928#3 -137107928#2 -137107928#1 -137107928#0 1078939193 69152604 69156898#0 69156898#1 69156898#2 1078939205 1092843298#0 1092843298#1 69157154#0 69157154#1 1078939206"/>
    </vehicle>
    <vehicle id="192" depart="192.00">
        <route edges="1078939193 69152604 69156898#0 69156898#1"/>
    </vehicle>
    <vehicle id="193" depart="193.00">
        <route edges="-137107928#4 -137107928#3 -137107928#2 -137107928#1 -137107928#0 1078939193 69152604 69156898#0 69156898#1 69156898#2 1078939194#1 1078939194#2"/>
    </vehicle>
    <vehicle id="195" depart="195.00">
        <route edges="69156898#0 69156898#1 69156898#2 1078939205 1092843298#0 1092843298#1 69157154#0"/>
    </vehicle>
    <vehicle id="196" depart="196.00">
        <route edges="137107928#2 137107928#3 137107928#4 -137107928#4 -137107928#3 -137107928#2 -137107928#1 -137107928#0 1078939193 69152604 69156898#0 69156898#1 69156898#2 428147193#1 24450885#1"/>
    </vehicle>
    <vehicle id="197" depart="197.00">
        <route edges="69156898#1 69156898#2 428147193#1 428147193#2"/>
    </vehicle>
    <vehicle id="199" depart="199.00">
        <route edges="24465880#0 24465880#1 24450885#1 1078939205 1092843298#0"/>
    </vehicle>
    <vehicle id="200" depart="200.00">
        <route edges="137107928#1 137107928#2 137107928#3 137107928#4"/>
    </vehicle>
    <vehicle id="203" depart="203.00">
        <route edges="137107928#2 137107928#3 137107928#4 -137107928#4 -137107928#3 -137107928#2 -137107928#1 -137107928#0 1078939193 69152604 69156898#0 69156898#1 69156898#2 1078939194#1 1078939194#2 1078939194#3"/>
    </vehicle>
    <vehicle id="205" depart="205.00">
        <route edges="-137107928#4 -137107928#3 -137107928#2 -137107928#1 -137107928#0 1078939193 69152604 69156898#0 69156898#1"/>
    </vehicle>
    <vehicle id="206" depart="206.00">
        <route edges="137107928#3 137107928#4 -137107928#4 -137107928#3 -137107928#2 -137107928#1 -137107928#0 1078939193 69152604 69156898#0 69156898#1 69156898#2 428147193#1 24450885#1"/>
    </vehicle>
    <vehicle id="207" depart="207.00">
        <route edges="24450885#0 24450885#1 1078939205"/>
    </vehicle>
    <vehicle id="208" depart="208.00">
        <route edges="1078939193 69152604 69156898#0 69156898#1 69156898#2 1078939195"/>
    </vehicle>
    <vehicle id="209" depart="209.00">
        <route edges="137107928#3 137107928#4 -137107928#4 -137107928#3 -137107928#2 -137107928#1 -137107928#0 137107928#0 137107928#1"/>
    </vehicle>
    <vehicle id="212" depart="212.00">
        <route edges="24450885#1 428147193#1 -24465880#1 -24465880#0"/>
    </vehicle>
    <vehicle id="214" depart="214.00">
        <route edges="24465880#0 24465880#1 24450885#1"/>
    </vehicle>
    <vehicle id="215" depart="215.00">
        <route edges="-24465880#1 -24465880#0 24465880#0 24465880#1 24450885#1 1078939205 1092843298#0"/>
    </vehicle>
    <vehicle id="216" depart="216.00">
        <route edges="-137107928#0 1078939193 69152604 69156898#0 69156898#1 69156898#2 1078939195"/>
    </vehicle>
    <vehicle id="219" depart="219.00">
        <route edges="137107928#3 137107928#4 -137107928#4 -137107928#3 -137107928#2 -137107928#1 -137107928#0 1078939193 69152604 69156898#0 69156898#1 69156898#2 1078939205 1092843298#0 1092843298#1 69157154#0"/>
    </vehicle>
    <vehicle id="221" depart="221.00">
        <route edges="39692894#2 1092843304#0 428147193#1 -24465880#1"/>
    </vehicle>
    <vehicle id="222" depart="222.00">
        <route edges="-137107928#1 -137107928#0 1078939193 69152604 69156898#0 69156898#1 69156898#2 428147193#1 -24465880#1"/>
    </vehicle>
    <vehicle id="223" depart="223.00">
        <route edges="69156898#1 69156898#2 428147193#1 -24465880#1"/>
    </vehicle>
    <vehicle id="224" depart="224.00">
        <route edges="1078939205 1092843298#0"/>
    </vehicle>
    <vehicle id="226" depart="226.00">
        <route edges="137107928#1 137107928#2 137107928#3 137107928#4 -137107928#4 -137107928#3 -137107928#2 -137107928#1 -137107928#0 1078939193 69152604 69156898#0 69156898#1 69156898#2 1078939205"/>
    </vehicle>
    <vehicle id="227" depart="227.00">
        <route edges="39692894#1"/>
    </vehicle>
    <vehicle id="229" depart="229.00">
        <route edges="39692894#2 1092843304#0 1078939205"/>
    </vehicle>
    <vehicle id="231" depart="231.00">
        <route edges="69156898#2 428147193#1 -24465880#1 -24465880#0 24465880#0 24465880#1"/>
    </vehicle>
    <vehicle id="232" depart="232.00">
        <route edges="69156898#0 69156898#1 69156898#2 1078939205 1092843298#0 1092843298#1 69157154#0"/>
    </vehicle>
    <vehicle id="236" depart="236.00">
        <route edges="39692894#1 39692894#2 1092843304#0 428147193#1 -24465880#1"/>
    </vehicle>
    <vehicle id="238" depart="238.00">
        <route edges="-137107928#1 -137107928#0 137107928#0 137107928#1 137107928#2 137107928#3 137107928#4 -137107928#4 -137107928#3 -137107928#2"/>
    </vehicle>
    <vehicle id="241" depart="241.00">
        <route edges="137107928#0 137107928#1 137107928#2 137107928#3 137107928#4 -137107928#4 -137107928#3 -137107928#2 -137107928#1 -137107928#0 1078939193 69152604"/>
    </vehicle>
    <vehicle id="242" depart="242.00">
        <route edges="137107928#3 137107928#4 -137107928#4 -137107928#3 -137107928#2 -137107928#1 -137107928#0 1078939193 69152604 69156898#0 69156898#1 69156898#2 1078939205 1092843298#0 1092843298#1 69157154#0 69157154#1"/>
    </vehicle>
    <vehicle id="243" depart="243.00">
        <route edges="137107928#0 137107928#1 137107928#2 137107928#3 137107928#4 -137107928#4 -137107928#3 -137107928#2"/>
    </vehicle>
    <vehicle id="244" depart="244.00">
        <route edges="428147193#1 428147193#2"/>
    </vehicle>
    <vehicle id="246" depart="246.00">
        <route edges="69156898#2 428147193#1 -24465880#1 -24465880#0"/>
    </vehicle>
    <vehicle id="249" depart="249.00">
        <route edges="69156898#2 1078939205 1092843298#0 1092843298#1 69157154#0 69157154#1"/>
    </vehicle>
    <vehicle id="252" depart="252.00">
        <route edges="-137107928#0 1078939193 69152604 69156898#0 69156898#1 69156898#2 428147193#1"/>
    </vehicle>
    <vehicle id="255" depart="255.00">
        <route edges="24450885#0 24450885#1 1078939195"/>
    </vehicle>
    <vehicle id="256" depart="256.00">
        <route edges="24450885#1 428147193#1 -24465880#1 -24465880#0"/>
    </vehicle>
    <vehicle id="258" depart="258.00">
        <route edges="39692894#0 39692894#1 39692894#2 1092843304#0 1078939205 1092843298#0 1092843298#1 69157154#0 69157154#1"/>
    </vehicle>
    <vehicle id="262" depart="262.00">
        <route edges="24465880#1 -24465880#1"/>
    </vehicle>
    <vehicle id="264" depart="264.00">
        <route edges="-137107928#2"/>
    </vehicle>
    <vehicle id="266" depart="266.00">
        <route edges="-24465880#1 -24465880#0 24465880#0 24465880#1 24450885#1 1078939194#1 1078939194#2 1078939194#3"/>
    </vehicle>
    <vehicle id="267" depart="267.00">
        <route edges="69156898#0 69156898#1 69156898#2 428147193#1 428147193#2"/>
    </vehicle>
    <vehicle id="268" depart="268.00">
        <route edges="137107928#3 137107928#4 -137107928#4 -137107928#3 -137107928#2 -137107928#1 -137107928#0 1078939193 69152604 69156898#0 69156898#1 69156898#2 428147193#1 -24465880#1 -24465880#0"/>
    </vehicle>
    <vehicle id="271" depart="271.00">
        <route edges="24465880#1 -24465880#1"/>
    </vehicle>
    <vehicle id="272" depart="272.00">
        <route edges="1092843304#0 1078939205 1092843298#0 1092843298#1"/>
    </vehicle>
    <vehicle id="273" depart="273.00">
        <route edges="-137107928#4 -137107928#3 -137107928#2 -137107928#1 -137107928#0 137107928#0 137107928#1"/>
    </vehicle>
    <vehicle id="274" depart="274.00">
        <route edges="24450885#1 1078939205 1092843298#0"/>
    </vehicle>
    <vehicle id="277" depart="277.00">
        <route edges="1078939193 69152604 69156898#0 69156898#1 69156898#2 1078939205"/>
    </vehicle>
    <vehicle id="278" depart="278.00">
        <route edges="24465880#1 428147193#2"/>
    </vehicle>
    <vehicle id="279" depart="279.00">
        <route edges="39692894#2"/>
    </vehicle>
    <vehicle id="281" depart="281.00">
        <route edges="-137107928#0 1078939193 69152604 69156898#0 69156898#1 69156898#2 428147193#1 -24465880#1 -24465880#0"/>
    </vehicle>
    <vehicle id="282" depart="282.00">
        <route edges="24465880#0 24465880#1 24450885#1 1078939205 1092843298#0 1092843298#1 69157154#0"/>
    </vehicle>
    <vehicle id="283" depart="283.00">
        <route edges="24465880#1 24450885#1 1078939205 1092843298#0 1092843298#1 69157154#0 69157154#1 1078939206"/>
    </vehicle>
    <vehicle id="284" depart="284.00">
        <route edges="39692894#2 1092843304#0 428147193#1 24450885#1"/>
    </vehicle>
    <vehicle id="287" depart="287.00">
        <route edges="69152604 69156898#0 69156898#1 69156898#2 1078939205 1092843298#0"/>
    </vehicle>
    <vehicle id="288" depart="288.00">
        <route edges="39692894#0 39692894#1"/>
    </vehicle>
    <vehicle id="290" depart="290.00">
        <route edges="-137107928#4 -137107928#3 -137107928#2 -137107928#1 -137107928#0 1078939193 69152604 69156898#0 69156898#1 69156898#2 1078939205 1092843298#0 1092843298#1 69157154#0 69157154#1 1078939206"/>
    </vehicle>
    <vehicle id="291" depart="291.00">
        <route edges="-137107928#2 -137107928#1 -137107928#0 137107928#0 137107928#1"/>
    </vehicle>
    <vehicle id="292" depart="292.00">
        <route edges="137107928#1 137107928#2 137107928#3"/>
    </vehicle>
    <vehicle id="294" depart="294.00">
        <route edges="-137107928#2 -137107928#1 -137107928#0 1078939193 69152604 69156898#0 69156898#1 69156898#2 1078939205 1092843298#0 1092843298#1 69157154#0"/>
    </vehicle>
    <vehicle id="295" depart="295.00">
        <route edges="-137107928#0 1078939193 69152604 69156898#0 69156898#1 69156898#2 428147193#1 24450885#1"/>
    </vehicle>
    <vehicle id="296" depart="296.00">
        <route edges="428147193#1 24450885#1 1078939205 1092843298#0 1092843298#1 69157154#0 69157154#1"/>
    </vehicle>
    <vehicle id="297" depart="297.00">
        <route edges="137107928#2 137107928#3 137107928#4 -137107928#4 -137107928#3 -137107928#2 -137107928#1 -137107928#0 1078939193 69152604 69156898#0 69156898#1 69156898#2"/>
    </vehicle>
    <vehicle id="299" depart="299.00">
        <route edges="1078939193 69152604 69156898#0 69156898#1 69156898#2 1078939205 1092843298#0 1092843298#1 69157154#0"/>
    </vehicle>
    <vehicle id="300" depart="300.00">
        <route edges="-137107928#1 -137107928#0 1078939193 69152604 69156898#0 69156898#1 69156898#2 1078939194#1"/>
    </vehicle>
    <vehicle id="302" depart="302.00">
        <route edges="1078939193 69152604 69156898#0 69156898#1 69156898#2 1078939205"/>
    </vehicle>
    <vehicle id="308" depart="308.00">
        <route edges="1092843304#0 1078939205"/>
    </vehicle>
    <vehicle id="310" depart="310.00">
        <route edges="24465880#0 24465880#1 24450885#1 1078939194#1 1078939194#2 1078939194#3"/>
    </vehicle>
    <vehicle id="315" depart="315.00">
        <route edges="-137107928#0 1078939193 69152604 69156898#0 69156898#1 69156898#2 428147193#1 -24465880#1 -24465880#0 24465880#0 24465880#1"/>
    </vehicle>
    <vehicle id="316" depart="316.00">
        <route edges="39692894#1 39692894#2 1092843304#0 428147193#1 24450885#1"/>
    </vehicle>
    <vehicle id="317" depart="317.00">
        <route edges="-137107928#4 -137107928#3 -137107928#2"/>
    </vehicle>
    <vehicle id="318" depart="318.00">
        <route edges="137107928#3 137107928#4 -137107928#4 -137107928#3 -137107928#2 -137107928#1 -137107928#0 1078939193 69152604 69156898#0 69156898#1 69156898#2 1078939195"/>
    </vehicle>
    <vehicle id="319" depart="319.00">
        <route edges="-137107928#1 -137107928#0 1078939193 69152604 69156898#0"/>
    </vehicle>
    <vehicle id="320" depart="320.00">
        <route edges="-137107928#0 1078939193 69152604 69156898#0"/>
    </vehicle>
    <vehicle id="321" depart="321.00">
        <route edges="-137107928#0 1078939193 69152604 69156898#0 69156898#1"/>
    </vehicle>
    <vehicle id="324" depart="324.00">
        <route edges="1092843304#0 428147193#1 -24465880#1 -24465880#0 24465880#0 24465880#1"/>
    </vehicle>
    <vehicle id="325" depart="325.00">
        <route edges="-137107928#3 -137107928#2 -137107928#1 -137107928#0 1078939193 69152604 69156898#0 69156898#1 69156898#2 1078939205 1092843298#0"/>
    </vehicle>
    <vehicle id="327" depart="327.00">
        <route edges="39692894#0 39692894#1 39692894#2"/>
    </vehicle>
    <vehicle id="329" depart="329.00">
        <route edges="-137107928#2 -137107928#1"/>
    </vehicle>
    <vehicle id="330" depart="330.00">
        <route edges="24465880#1 24450885#1 1078939205 1092843298#0 1092843298#1"/>
    </vehicle>
    <vehicle id="331" depart="331.00">
        <route edges="137107928#0 137107928#1"/>
    </vehicle>
    <vehicle id="334" depart="334.00">
        <route edges="24465880#1 24450885#1 1078939205 1092843298#0"/>
    </vehicle>
    <vehicle id="336" depart="336.00">
        <route edges="-137107928#0 137107928#0 137107928#1 137107928#2 137107928#3 137107928#4 -137107928#4 -137107928#3 -137107928#2"/>
    </vehicle>
    <vehicle id="337" depart="337.00">
        <route edges="69152604 69156898#0 69156898#1 69156898#2"/>
    </vehicle>
    <vehicle id="338" depart="338.00">
        <route edges="39692894#1 39692894#2 1092843304#0 1078939205 1092843298#0 1092843298#1"/>
    </vehicle>
    <vehicle id="339" depart="339.00">
        <route edges="1092843298#1 69157154#0 69157154#1"/>
    </vehicle>
    <vehicle id="343" depart="343.00">
        <route edges="137107928#2 137107928#3 137107928#4 -137107928#4 -137107928#3"/>
    </vehicle>
    <vehicle id="345" depart="345.00">
        <route edges="428147193#1 24450885#1 1078939195"/>
    </vehicle>
    <vehicle id="350" depart="350.00">
        <route edges="1078939193"/>
    </vehicle>