<?xml version="1.0" encoding="utf-8"?>
<configuration xmlns:xsd="http://www.w3.org/2001/XMLSchema" xmlns:xsi="http://www.w3.org/2001/XMLSchema-instance">
  <input>
    <net-file value="tj.net.xml" />
    <route-files value="tj.rou.xml" />
    <additional-files value="tj.poly.xml" />
  </input>
  <time>
    <begin value="0" />
    <end value="2000" />
  </time>
</configuration>
