<?xml version="1.0" encoding="UTF-8"?>

<!-- generated on 2024-05-16 15:40:21.781313 by randomTrips.py v1_19_0+0000-baa66a0f364
<configuration>
    <net-file value="tj.net.xml"/>
    <route-file value="tj.rou.xml"/>
    <length value="True"/>
    <end value="100.0"/>
</configuration>
-->

<routes xmlns:xsi="http://www.w3.org/2001/XMLSchema-instance" xsi:noNamespaceSchemaLocation="http://sumo.dlr.de/xsd/routes_file.xsd">
    <trip id="0" depart="0.00" from="176876586" to="-1107954460#1"/>
    <trip id="1" depart="1.00" from="-49212299#2" to="-39675055#1"/>
    <trip id="2" depart="2.00" from="35751584#0" to="24450885#1"/>
    <trip id="3" depart="3.00" from="50773677#3" to="-1107972223#1"/>
    <trip id="4" depart="4.00" from="1107966994#1" to="-1107962400#6"/>
    <trip id="5" depart="5.00" from="-297471511#1" to="1131988466#3"/>
    <trip id="6" depart="6.00" from="-1107962402#1" to="-24474427#0"/>
    <trip id="7" depart="7.00" from="177060939#0" to="136752696"/>
    <trip id="8" depart="8.00" from="-297471868" to="136797041#0"/>
    <trip id="9" depart="9.00" from="428147190#1" to="-1080217656#0"/>
    <trip id="10" depart="10.00" from="411257680#1" to="24474372#2"/>
    <trip id="11" depart="11.00" from="1077974681" to="-137107928#0"/>
    <trip id="12" depart="12.00" from="71461991" to="1080217656#2"/>
    <trip id="13" depart="13.00" from="-1107972229#0" to="-1107972242#1"/>
    <trip id="14" depart="14.00" from="47096752#0" to="176637359#1"/>
    <trip id="15" depart="15.00" from="428147190#0" to="39675267#0"/>
    <trip id="16" depart="16.00" from="1201643772#0" to="8881008"/>
    <trip id="17" depart="17.00" from="1106846549#3" to="136752698"/>
    <trip id="18" depart="18.00" from="43925759#1" to="176873890"/>
    <trip id="19" depart="19.00" from="482847292#0" to="136752711#4"/>
    <trip id="20" depart="20.00" from="24465937" to="-1107965469"/>
    <trip id="21" depart="21.00" from="-39675055#1" to="-729783870"/>
    <trip id="22" depart="22.00" from="-1107969537#0" to="-39676332#0"/>
    <trip id="23" depart="23.00" from="-1107972248#2" to="-71365281#2"/>
    <trip id="24" depart="24.00" from="176873890" to="1107952460"/>
    <trip id="25" depart="25.00" from="1092843298#1" to="-297471511#1"/>
    <trip id="26" depart="26.00" from="-39687432" to="71365281#5"/>
    <trip id="27" depart="27.00" from="177051740#1" to="176637362#0"/>
    <trip id="28" depart="28.00" from="-176637362#2" to="39675055#4"/>
    <trip id="29" depart="29.00" from="-176637359#1" to="1107962410"/>
    <trip id="30" depart="30.00" from="9205136#1" to="177572347"/>
    <trip id="31" depart="31.00" from="136752696" to="24465937"/>
    <trip id="32" depart="32.00" from="47096752#0" to="39687203#1"/>
    <trip id="33" depart="33.00" from="-39675055#2" to="-1107962404"/>
    <trip id="34" depart="34.00" from="1073536007#2" to="-49212393#1"/>
    <trip id="35" depart="35.00" from="-24474427#4" to="71461988#1"/>
    <trip id="36" depart="36.00" from="49212357#4" to="1077974667#0"/>
    <trip id="37" depart="37.00" from="177743542#0" to="1107965477#0"/>
    <trip id="38" depart="38.00" from="50773685" to="1107972267#4"/>
    <trip id="39" depart="39.00" from="-39687333" to="-39687155#3"/>
    <trip id="40" depart="40.00" from="136752696" to="-49212357#1"/>
    <trip id="41" depart="41.00" from="136752707" to="50773678"/>
    <trip id="42" depart="42.00" from="1107965450#6" to="-39675055#1"/>
    <trip id="43" depart="43.00" from="987438282" to="1167519476#0"/>
    <trip id="44" depart="44.00" from="-1107972225#4" to="-1107965472"/>
    <trip id="45" depart="45.00" from="-1107972267#0" to="176876589"/>
    <trip id="46" depart="46.00" from="39687617" to="1107968614#5"/>
    <trip id="47" depart="47.00" from="-1107968593#1" to="1107965452#1"/>
    <trip id="48" depart="48.00" from="987437458#2" to="1254816437"/>
    <trip id="49" depart="49.00" from="8881008" to="482847292#3"/>
    <trip id="50" depart="50.00" from="-1106846550#4" to="39675055#1"/>
    <trip id="51" depart="51.00" from="239999357" to="1255166904#4"/>
    <trip id="52" depart="52.00" from="-39687432" to="177743542#2"/>
    <trip id="53" depart="53.00" from="-1107972268#1" to="1107969553#0"/>
    <trip id="54" depart="54.00" from="1107972234#0" to="71461991"/>
    <trip id="55" depart="55.00" from="49212357#3" to="-49212357#3"/>
    <trip id="56" depart="56.00" from="1124090094" to="-239999357"/>
    <trip id="57" depart="57.00" from="50773682" to="49212357#1"/>
    <trip id="58" depart="58.00" from="-71365281#5" to="177051740#1"/>
    <trip id="59" depart="59.00" from="136797064#0" to="-136797064#11"/>
    <trip id="60" depart="60.00" from="39676332#2" to="1272508532"/>
    <trip id="61" depart="61.00" from="39687155#3" to="1254816437"/>
    <trip id="62" depart="62.00" from="-1077974664#0" to="1077974678#1"/>
    <trip id="63" depart="63.00" from="-1107954459" to="69156898#1"/>
    <trip id="64" depart="64.00" from="49212388#2" to="428147193#2"/>
    <trip id="65" depart="65.00" from="-729783870" to="-1107966994#1"/>
    <trip id="66" depart="66.00" from="49212388#0" to="71461988#2"/>
    <trip id="67" depart="67.00" from="-1107969550#1" to="1107978684#1"/>
    <trip id="68" depart="68.00" from="-1107968600#1" to="39676345#2"/>
    <trip id="69" depart="69.00" from="39676342#3" to="-1107978668#0"/>
    <trip id="70" depart="70.00" from="1107972272#1" to="136752698"/>
    <trip id="71" depart="71.00" from="-39687333" to="49212385#0"/>
    <trip id="72" depart="72.00" from="1107966996" to="-297471511#1"/>
    <trip id="73" depart="73.00" from="1201643773" to="39675267#0"/>
    <trip id="74" depart="74.00" from="-24466106#4" to="1077974666"/>
    <trip id="75" depart="75.00" from="987437458#1" to="238492234#1"/>
    <trip id="76" depart="76.00" from="1107968615#2" to="1201484854#0"/>
    <trip id="77" depart="77.00" from="-1107972282#2" to="-39675055#2"/>
    <trip id="78" depart="78.00" from="1077974677#1" to="136797041#0"/>
    <trip id="79" depart="79.00" from="-39675055#3" to="-39675055#1"/>
    <trip id="80" depart="80.00" from="-1107968609#0" to="176876589"/>
    <trip id="81" depart="81.00" from="-39675055#1" to="50773680"/>
    <trip id="82" depart="82.00" from="482847292#0" to="-1107968604#1"/>
    <trip id="83" depart="83.00" from="-39676283#1" to="240007894#1"/>
    <trip id="84" depart="84.00" from="-297471511#0" to="-1107978678#1"/>
    <trip id="85" depart="85.00" from="71365287#0" to="136752707"/>
    <trip id="86" depart="86.00" from="1107972268#1" to="39687432"/>
    <trip id="87" depart="87.00" from="428147190#0" to="-24465937"/>
    <trip id="88" depart="88.00" from="-1107972237" to="1107969544"/>
    <trip id="89" depart="89.00" from="1107966997" to="1107972280#0"/>
    <trip id="90" depart="90.00" from="297471511#1" to="24450885#0"/>
    <trip id="91" depart="91.00" from="9205136#0" to="-1107972248#2"/>
    <trip id="92" depart="92.00" from="1107965459#1" to="1080217656#4"/>
    <trip id="93" depart="93.00" from="482847292#0" to="-39687203#1"/>
    <trip id="94" depart="94.00" from="-240007894#1" to="1107972248#1"/>
    <trip id="95" depart="95.00" from="1107966994#1" to="-71365281#2"/>
    <trip id="96" depart="96.00" from="-39676342#3" to="50773685"/>
    <trip id="97" depart="97.00" from="1107969539" to="482847292#3"/>
    <trip id="98" depart="98.00" from="1255166904#3" to="-1107965477#1"/>
    <trip id="99" depart="99.00" from="987438282" to="43925759#2"/>
</routes>
